data_image0
_chemical_formula_structural       Fe48Co24Cl32O128H64O112N80C32N112C96H32C96H32C96H32C96H32C192H32C96H32C64O32
_chemical_formula_sum              "Fe48 Co24 Cl32 O272 H256 N192 C768"
_cell_length_a       29.121
_cell_length_b       29.121
_cell_length_c       52.191
_cell_angle_alpha    90
_cell_angle_beta     90
_cell_angle_gamma    90

_space_group_name_H-M_alt    "P 1"
_space_group_IT_number       1

loop_
  _space_group_symop_operation_xyz
  'x, y, z'

loop_
  _atom_site_type_symbol
  _atom_site_label
  _atom_site_symmetry_multiplicity
  _atom_site_fract_x
  _atom_site_fract_y
  _atom_site_fract_z
  _atom_site_occupancy
  Fe  Fe1       1.0  0.72254  0.52746  0.37500  1.0000
  Fe  Fe2       1.0  0.77746  0.47254  0.87500  1.0000
  Fe  Fe3       1.0  0.72254  0.47254  0.62500  1.0000
  Fe  Fe4       1.0  0.77746  0.52746  0.12500  1.0000
  Fe  Fe5       1.0  0.22254  0.02746  0.87500  1.0000
  Fe  Fe6       1.0  0.27746  0.97254  0.37500  1.0000
  Fe  Fe7       1.0  0.22254  0.97254  0.12500  1.0000
  Fe  Fe8       1.0  0.27746  0.02746  0.62500  1.0000
  Fe  Fe9       1.0  0.27746  0.47254  0.62500  1.0000
  Fe  Fe10      1.0  0.22254  0.52746  0.12500  1.0000
  Fe  Fe11      1.0  0.27746  0.52746  0.37500  1.0000
  Fe  Fe12      1.0  0.22254  0.47254  0.87500  1.0000
  Fe  Fe13      1.0  0.77746  0.97254  0.12500  1.0000
  Fe  Fe14      1.0  0.72254  0.02746  0.62500  1.0000
  Fe  Fe15      1.0  0.77746  0.02746  0.87500  1.0000
  Fe  Fe16      1.0  0.72254  0.97254  0.37500  1.0000
  Fe  Fe17      1.0  0.77988  0.47401  0.57026  1.0000
  Fe  Fe18      1.0  0.72012  0.52599  0.07026  1.0000
  Fe  Fe19      1.0  0.77599  0.52988  0.82026  1.0000
  Fe  Fe20      1.0  0.72401  0.47012  0.32026  1.0000
  Fe  Fe21      1.0  0.72012  0.47401  0.92974  1.0000
  Fe  Fe22      1.0  0.77988  0.52599  0.42974  1.0000
  Fe  Fe23      1.0  0.72401  0.52988  0.67974  1.0000
  Fe  Fe24      1.0  0.77599  0.47012  0.17974  1.0000
  Fe  Fe25      1.0  0.27988  0.97401  0.07026  1.0000
  Fe  Fe26      1.0  0.22012  0.02599  0.57026  1.0000
  Fe  Fe27      1.0  0.27599  0.02988  0.32026  1.0000
  Fe  Fe28      1.0  0.22401  0.97012  0.82026  1.0000
  Fe  Fe29      1.0  0.22012  0.97401  0.42974  1.0000
  Fe  Fe30      1.0  0.27988  0.02599  0.92974  1.0000
  Fe  Fe31      1.0  0.22401  0.02988  0.17974  1.0000
  Fe  Fe32      1.0  0.27599  0.97012  0.67974  1.0000
  Fe  Fe33      1.0  0.22012  0.52599  0.42974  1.0000
  Fe  Fe34      1.0  0.27988  0.47401  0.92974  1.0000
  Fe  Fe35      1.0  0.22401  0.47012  0.17974  1.0000
  Fe  Fe36      1.0  0.27599  0.52988  0.67974  1.0000
  Fe  Fe37      1.0  0.27988  0.52599  0.07026  1.0000
  Fe  Fe38      1.0  0.22012  0.47401  0.57026  1.0000
  Fe  Fe39      1.0  0.27599  0.47012  0.32026  1.0000
  Fe  Fe40      1.0  0.22401  0.52988  0.82026  1.0000
  Fe  Fe41      1.0  0.72012  0.02599  0.92974  1.0000
  Fe  Fe42      1.0  0.77988  0.97401  0.42974  1.0000
  Fe  Fe43      1.0  0.72401  0.97012  0.67974  1.0000
  Fe  Fe44      1.0  0.77599  0.02988  0.17974  1.0000
  Fe  Fe45      1.0  0.77988  0.02599  0.57026  1.0000
  Fe  Fe46      1.0  0.72012  0.97401  0.07026  1.0000
  Fe  Fe47      1.0  0.77599  0.97012  0.82026  1.0000
  Fe  Fe48      1.0  0.72401  0.02988  0.32026  1.0000
  Co  Co1       1.0  0.73984  0.25000  0.44715  1.0000
  Co  Co2       1.0  0.76016  0.75000  0.94715  1.0000
  Co  Co3       1.0  0.00000  0.48984  0.69715  1.0000
  Co  Co4       1.0  0.50000  0.51016  0.19715  1.0000
  Co  Co5       1.0  0.76016  0.25000  0.05285  1.0000
  Co  Co6       1.0  0.73984  0.75000  0.55285  1.0000
  Co  Co7       1.0  0.50000  0.48984  0.80285  1.0000
  Co  Co8       1.0  0.00000  0.51016  0.30285  1.0000
  Co  Co9       1.0  0.23984  0.75000  0.94715  1.0000
  Co  Co10      1.0  0.26016  0.25000  0.44715  1.0000
  Co  Co11      1.0  0.50000  0.98984  0.19715  1.0000
  Co  Co12      1.0  0.00000  0.01016  0.69715  1.0000
  Co  Co13      1.0  0.26016  0.75000  0.55285  1.0000
  Co  Co14      1.0  0.23984  0.25000  0.05285  1.0000
  Co  Co15      1.0  0.00000  0.98984  0.30285  1.0000
  Co  Co16      1.0  0.50000  0.01016  0.80285  1.0000
  Co  Co17      1.0  0.75000  0.75000  0.25000  1.0000
  Co  Co18      1.0  0.75000  0.25000  0.75000  1.0000
  Co  Co19      1.0  0.50000  0.50000  0.50000  1.0000
  Co  Co20      1.0  0.00000  0.50000  0.00000  1.0000
  Co  Co21      1.0  0.25000  0.25000  0.75000  1.0000
  Co  Co22      1.0  0.25000  0.75000  0.25000  1.0000
  Co  Co23      1.0  0.00000  0.00000  0.00000  1.0000
  Co  Co24      1.0  0.50000  0.00000  0.50000  1.0000
  Cl  Cl1       1.0  0.65260  0.25000  0.45380  0.5000
  Cl  Cl2       1.0  0.84740  0.75000  0.95380  0.5000
  Cl  Cl3       1.0  0.00000  0.40260  0.70380  0.5000
  Cl  Cl4       1.0  0.50000  0.59740  0.20380  0.5000
  Cl  Cl5       1.0  0.84740  0.25000  0.04620  0.5000
  Cl  Cl6       1.0  0.65260  0.75000  0.54620  0.5000
  Cl  Cl7       1.0  0.50000  0.40260  0.79620  0.5000
  Cl  Cl8       1.0  0.00000  0.59740  0.29620  0.5000
  Cl  Cl9       1.0  0.15260  0.75000  0.95380  0.5000
  Cl  Cl10      1.0  0.34740  0.25000  0.45380  0.5000
  Cl  Cl11      1.0  0.50000  0.90260  0.20380  0.5000
  Cl  Cl12      1.0  0.00000  0.09740  0.70380  0.5000
  Cl  Cl13      1.0  0.34740  0.75000  0.54620  0.5000
  Cl  Cl14      1.0  0.15260  0.25000  0.04620  0.5000
  Cl  Cl15      1.0  0.00000  0.90260  0.29620  0.5000
  Cl  Cl16      1.0  0.50000  0.09740  0.79620  0.5000
  Cl  Cl17      1.0  0.83960  0.75000  0.25689  0.5000
  Cl  Cl18      1.0  0.66040  0.25000  0.75689  0.5000
  Cl  Cl19      1.0  0.50000  0.58960  0.50689  0.5000
  Cl  Cl20      1.0  0.00000  0.41040  0.00689  0.5000
  Cl  Cl21      1.0  0.66040  0.75000  0.24311  0.5000
  Cl  Cl22      1.0  0.83960  0.25000  0.74311  0.5000
  Cl  Cl23      1.0  0.00000  0.58960  0.99311  0.5000
  Cl  Cl24      1.0  0.50000  0.41040  0.49311  0.5000
  Cl  Cl25      1.0  0.33960  0.25000  0.75689  0.5000
  Cl  Cl26      1.0  0.16040  0.75000  0.25689  0.5000
  Cl  Cl27      1.0  0.00000  0.08960  0.00689  0.5000
  Cl  Cl28      1.0  0.50000  0.91040  0.50689  0.5000
  Cl  Cl29      1.0  0.16040  0.25000  0.74311  0.5000
  Cl  Cl30      1.0  0.33960  0.75000  0.24311  0.5000
  Cl  Cl31      1.0  0.50000  0.08960  0.49311  0.5000
  Cl  Cl32      1.0  0.00000  0.91040  0.99311  0.5000
  O   O1        1.0  0.73158  0.53341  0.33595  1.0000
  O   O2        1.0  0.76842  0.46659  0.83595  1.0000
  O   O3        1.0  0.71659  0.48158  0.58595  1.0000
  O   O4        1.0  0.78341  0.51842  0.08595  1.0000
  O   O5        1.0  0.76842  0.53341  0.16405  1.0000
  O   O6        1.0  0.73158  0.46659  0.66405  1.0000
  O   O7        1.0  0.78341  0.48158  0.91405  1.0000
  O   O8        1.0  0.71659  0.51842  0.41405  1.0000
  O   O9        1.0  0.23158  0.03341  0.83595  1.0000
  O   O10       1.0  0.26842  0.96659  0.33595  1.0000
  O   O11       1.0  0.21659  0.98158  0.08595  1.0000
  O   O12       1.0  0.28341  0.01842  0.58595  1.0000
  O   O13       1.0  0.26842  0.03341  0.66405  1.0000
  O   O14       1.0  0.23158  0.96659  0.16405  1.0000
  O   O15       1.0  0.28341  0.98158  0.41405  1.0000
  O   O16       1.0  0.21659  0.01842  0.91405  1.0000
  O   O17       1.0  0.26842  0.46659  0.66405  1.0000
  O   O18       1.0  0.23158  0.53341  0.16405  1.0000
  O   O19       1.0  0.28341  0.51842  0.41405  1.0000
  O   O20       1.0  0.21659  0.48158  0.91405  1.0000
  O   O21       1.0  0.23158  0.46659  0.83595  1.0000
  O   O22       1.0  0.26842  0.53341  0.33595  1.0000
  O   O23       1.0  0.21659  0.51842  0.08595  1.0000
  O   O24       1.0  0.28341  0.48158  0.58595  1.0000
  O   O25       1.0  0.76842  0.96659  0.16405  1.0000
  O   O26       1.0  0.73158  0.03341  0.66405  1.0000
  O   O27       1.0  0.78341  0.01842  0.91405  1.0000
  O   O28       1.0  0.71659  0.98158  0.41405  1.0000
  O   O29       1.0  0.73158  0.96659  0.33595  1.0000
  O   O30       1.0  0.76842  0.03341  0.83595  1.0000
  O   O31       1.0  0.71659  0.01842  0.58595  1.0000
  O   O32       1.0  0.78341  0.98158  0.08595  1.0000
  O   O33       1.0  0.72500  0.46474  0.35977  1.0000
  O   O34       1.0  0.77500  0.53526  0.85977  1.0000
  O   O35       1.0  0.78526  0.47500  0.60977  1.0000
  O   O36       1.0  0.71474  0.52500  0.10977  1.0000
  O   O37       1.0  0.77500  0.46474  0.14023  1.0000
  O   O38       1.0  0.72500  0.53526  0.64023  1.0000
  O   O39       1.0  0.71474  0.47500  0.89023  1.0000
  O   O40       1.0  0.78526  0.52500  0.39023  1.0000
  O   O41       1.0  0.22500  0.96474  0.85977  1.0000
  O   O42       1.0  0.27500  0.03526  0.35977  1.0000
  O   O43       1.0  0.28526  0.97500  0.10977  1.0000
  O   O44       1.0  0.21474  0.02500  0.60977  1.0000
  O   O45       1.0  0.27500  0.96474  0.64023  1.0000
  O   O46       1.0  0.22500  0.03526  0.14023  1.0000
  O   O47       1.0  0.21474  0.97500  0.39023  1.0000
  O   O48       1.0  0.28526  0.02500  0.89023  1.0000
  O   O49       1.0  0.27500  0.53526  0.64023  1.0000
  O   O50       1.0  0.22500  0.46474  0.14023  1.0000
  O   O51       1.0  0.21474  0.52500  0.39023  1.0000
  O   O52       1.0  0.28526  0.47500  0.89023  1.0000
  O   O53       1.0  0.22500  0.53526  0.85977  1.0000
  O   O54       1.0  0.27500  0.46474  0.35977  1.0000
  O   O55       1.0  0.28526  0.52500  0.10977  1.0000
  O   O56       1.0  0.21474  0.47500  0.60977  1.0000
  O   O57       1.0  0.77500  0.03526  0.14023  1.0000
  O   O58       1.0  0.72500  0.96474  0.64023  1.0000
  O   O59       1.0  0.71474  0.02500  0.89023  1.0000
  O   O60       1.0  0.78526  0.97500  0.39023  1.0000
  O   O61       1.0  0.72500  0.03526  0.35977  1.0000
  O   O62       1.0  0.77500  0.96474  0.85977  1.0000
  O   O63       1.0  0.78526  0.02500  0.60977  1.0000
  O   O64       1.0  0.71474  0.97500  0.10977  1.0000
  O   O65       1.0  0.77060  0.46742  0.53328  1.0000
  O   O66       1.0  0.72940  0.53258  0.03328  1.0000
  O   O67       1.0  0.78258  0.52060  0.78328  1.0000
  O   O68       1.0  0.71742  0.47940  0.28328  1.0000
  O   O69       1.0  0.72940  0.46742  0.96672  1.0000
  O   O70       1.0  0.77060  0.53258  0.46672  1.0000
  O   O71       1.0  0.71742  0.52060  0.71672  1.0000
  O   O72       1.0  0.78258  0.47940  0.21672  1.0000
  O   O73       1.0  0.27060  0.96742  0.03328  1.0000
  O   O74       1.0  0.22940  0.03258  0.53328  1.0000
  O   O75       1.0  0.28258  0.02060  0.28328  1.0000
  O   O76       1.0  0.21742  0.97940  0.78328  1.0000
  O   O77       1.0  0.22940  0.96742  0.46672  1.0000
  O   O78       1.0  0.27060  0.03258  0.96672  1.0000
  O   O79       1.0  0.21742  0.02060  0.21672  1.0000
  O   O80       1.0  0.28258  0.97940  0.71672  1.0000
  O   O81       1.0  0.22940  0.53258  0.46672  1.0000
  O   O82       1.0  0.27060  0.46742  0.96672  1.0000
  O   O83       1.0  0.21742  0.47940  0.21672  1.0000
  O   O84       1.0  0.28258  0.52060  0.71672  1.0000
  O   O85       1.0  0.27060  0.53258  0.03328  1.0000
  O   O86       1.0  0.22940  0.46742  0.53328  1.0000
  O   O87       1.0  0.28258  0.47940  0.28328  1.0000
  O   O88       1.0  0.21742  0.52060  0.78328  1.0000
  O   O89       1.0  0.72940  0.03258  0.96672  1.0000
  O   O90       1.0  0.77060  0.96742  0.46672  1.0000
  O   O91       1.0  0.71742  0.97940  0.71672  1.0000
  O   O92       1.0  0.78258  0.02060  0.21672  1.0000
  O   O93       1.0  0.77060  0.03258  0.53328  1.0000
  O   O94       1.0  0.72940  0.96742  0.03328  1.0000
  O   O95       1.0  0.78258  0.97940  0.78328  1.0000
  O   O96       1.0  0.71742  0.02060  0.28328  1.0000
  O   O97       1.0  0.78810  0.54360  0.56311  1.0000
  O   O98       1.0  0.71190  0.45640  0.06311  1.0000
  O   O99       1.0  0.70640  0.53810  0.81311  1.0000
  O   O100      1.0  0.79360  0.46190  0.31311  1.0000
  O   O101      1.0  0.71190  0.54360  0.93689  1.0000
  O   O102      1.0  0.78810  0.45640  0.43689  1.0000
  O   O103      1.0  0.79360  0.53810  0.68689  1.0000
  O   O104      1.0  0.70640  0.46190  0.18689  1.0000
  O   O105      1.0  0.28810  0.04360  0.06311  1.0000
  O   O106      1.0  0.21190  0.95640  0.56311  1.0000
  O   O107      1.0  0.20640  0.03810  0.31311  1.0000
  O   O108      1.0  0.29360  0.96190  0.81311  1.0000
  O   O109      1.0  0.21190  0.04360  0.43689  1.0000
  O   O110      1.0  0.28810  0.95640  0.93689  1.0000
  O   O111      1.0  0.29360  0.03810  0.18689  1.0000
  O   O112      1.0  0.20640  0.96190  0.68689  1.0000
  O   O113      1.0  0.21190  0.45640  0.43689  1.0000
  O   O114      1.0  0.28810  0.54360  0.93689  1.0000
  O   O115      1.0  0.29360  0.46190  0.18689  1.0000
  O   O116      1.0  0.20640  0.53810  0.68689  1.0000
  O   O117      1.0  0.28810  0.45640  0.06311  1.0000
  O   O118      1.0  0.21190  0.54360  0.56311  1.0000
  O   O119      1.0  0.20640  0.46190  0.31311  1.0000
  O   O120      1.0  0.29360  0.53810  0.81311  1.0000
  O   O121      1.0  0.71190  0.95640  0.93689  1.0000
  O   O122      1.0  0.78810  0.04360  0.43689  1.0000
  O   O123      1.0  0.79360  0.96190  0.68689  1.0000
  O   O124      1.0  0.70640  0.03810  0.18689  1.0000
  O   O125      1.0  0.78810  0.95640  0.56311  1.0000
  O   O126      1.0  0.71190  0.04360  0.06311  1.0000
  O   O127      1.0  0.70640  0.96190  0.81311  1.0000
  O   O128      1.0  0.79360  0.03810  0.31311  1.0000
  H   H1        1.0  0.81705  0.55107  0.56503  1.0000
  H   H2        1.0  0.68295  0.44893  0.06503  1.0000
  H   H3        1.0  0.69893  0.56705  0.81503  1.0000
  H   H4        1.0  0.80107  0.43295  0.31503  1.0000
  H   H5        1.0  0.68295  0.55107  0.93497  1.0000
  H   H6        1.0  0.81705  0.44893  0.43497  1.0000
  H   H7        1.0  0.80107  0.56705  0.68497  1.0000
  H   H8        1.0  0.69893  0.43295  0.18497  1.0000
  H   H9        1.0  0.31705  0.05107  0.06503  1.0000
  H   H10       1.0  0.18295  0.94893  0.56503  1.0000
  H   H11       1.0  0.19893  0.06705  0.31503  1.0000
  H   H12       1.0  0.30107  0.93295  0.81503  1.0000
  H   H13       1.0  0.18295  0.05107  0.43497  1.0000
  H   H14       1.0  0.31705  0.94893  0.93497  1.0000
  H   H15       1.0  0.30107  0.06705  0.18497  1.0000
  H   H16       1.0  0.19893  0.93295  0.68497  1.0000
  H   H17       1.0  0.18295  0.44893  0.43497  1.0000
  H   H18       1.0  0.31705  0.55107  0.93497  1.0000
  H   H19       1.0  0.30107  0.43295  0.18497  1.0000
  H   H20       1.0  0.19893  0.56705  0.68497  1.0000
  H   H21       1.0  0.31705  0.44893  0.06503  1.0000
  H   H22       1.0  0.18295  0.55107  0.56503  1.0000
  H   H23       1.0  0.19893  0.43295  0.31503  1.0000
  H   H24       1.0  0.30107  0.56705  0.81503  1.0000
  H   H25       1.0  0.68295  0.94893  0.93497  1.0000
  H   H26       1.0  0.81705  0.05107  0.43497  1.0000
  H   H27       1.0  0.80107  0.93295  0.68497  1.0000
  H   H28       1.0  0.69893  0.06705  0.18497  1.0000
  H   H29       1.0  0.81705  0.94893  0.56503  1.0000
  H   H30       1.0  0.68295  0.05107  0.06503  1.0000
  H   H31       1.0  0.69893  0.93295  0.81503  1.0000
  H   H32       1.0  0.80107  0.06705  0.31503  1.0000
  H   H33       1.0  0.77385  0.55947  0.57488  1.0000
  H   H34       1.0  0.72615  0.44053  0.07488  1.0000
  H   H35       1.0  0.69053  0.52385  0.82488  1.0000
  H   H36       1.0  0.80947  0.47615  0.32488  1.0000
  H   H37       1.0  0.72615  0.55947  0.92512  1.0000
  H   H38       1.0  0.77385  0.44053  0.42512  1.0000
  H   H39       1.0  0.80947  0.52385  0.67512  1.0000
  H   H40       1.0  0.69053  0.47615  0.17512  1.0000
  H   H41       1.0  0.27385  0.05947  0.07488  1.0000
  H   H42       1.0  0.22615  0.94053  0.57488  1.0000
  H   H43       1.0  0.19053  0.02385  0.32488  1.0000
  H   H44       1.0  0.30947  0.97615  0.82488  1.0000
  H   H45       1.0  0.22615  0.05947  0.42512  1.0000
  H   H46       1.0  0.27385  0.94053  0.92512  1.0000
  H   H47       1.0  0.30947  0.02385  0.17512  1.0000
  H   H48       1.0  0.19053  0.97615  0.67512  1.0000
  H   H49       1.0  0.22615  0.44053  0.42512  1.0000
  H   H50       1.0  0.27385  0.55947  0.92512  1.0000
  H   H51       1.0  0.30947  0.47615  0.17512  1.0000
  H   H52       1.0  0.19053  0.52385  0.67512  1.0000
  H   H53       1.0  0.27385  0.44053  0.07488  1.0000
  H   H54       1.0  0.22615  0.55947  0.57488  1.0000
  H   H55       1.0  0.19053  0.47615  0.32488  1.0000
  H   H56       1.0  0.30947  0.52385  0.82488  1.0000
  H   H57       1.0  0.72615  0.94053  0.92512  1.0000
  H   H58       1.0  0.77385  0.05947  0.42512  1.0000
  H   H59       1.0  0.80947  0.97615  0.67512  1.0000
  H   H60       1.0  0.69053  0.02385  0.17512  1.0000
  H   H61       1.0  0.77385  0.94053  0.57488  1.0000
  H   H62       1.0  0.72615  0.05947  0.07488  1.0000
  H   H63       1.0  0.69053  0.97615  0.82488  1.0000
  H   H64       1.0  0.80947  0.02385  0.32488  1.0000
  O   O129      1.0  0.72460  0.59570  0.36986  1.0000
  O   O130      1.0  0.77540  0.40430  0.86986  1.0000
  O   O131      1.0  0.65430  0.47460  0.61986  1.0000
  O   O132      1.0  0.84570  0.52540  0.11986  1.0000
  O   O133      1.0  0.77540  0.59570  0.13014  1.0000
  O   O134      1.0  0.72460  0.40430  0.63014  1.0000
  O   O135      1.0  0.84570  0.47460  0.88014  1.0000
  O   O136      1.0  0.65430  0.52540  0.38014  1.0000
  O   O137      1.0  0.22460  0.09570  0.86986  1.0000
  O   O138      1.0  0.27540  0.90430  0.36986  1.0000
  O   O139      1.0  0.15430  0.97460  0.11986  1.0000
  O   O140      1.0  0.34570  0.02540  0.61986  1.0000
  O   O141      1.0  0.27540  0.09570  0.63014  1.0000
  O   O142      1.0  0.22460  0.90430  0.13014  1.0000
  O   O143      1.0  0.34570  0.97460  0.38014  1.0000
  O   O144      1.0  0.15430  0.02540  0.88014  1.0000
  O   O145      1.0  0.27540  0.40430  0.63014  1.0000
  O   O146      1.0  0.22460  0.59570  0.13014  1.0000
  O   O147      1.0  0.34570  0.52540  0.38014  1.0000
  O   O148      1.0  0.15430  0.47460  0.88014  1.0000
  O   O149      1.0  0.22460  0.40430  0.86986  1.0000
  O   O150      1.0  0.27540  0.59570  0.36986  1.0000
  O   O151      1.0  0.15430  0.52540  0.11986  1.0000
  O   O152      1.0  0.34570  0.47460  0.61986  1.0000
  O   O153      1.0  0.77540  0.90430  0.13014  1.0000
  O   O154      1.0  0.72460  0.09570  0.63014  1.0000
  O   O155      1.0  0.84570  0.02540  0.88014  1.0000
  O   O156      1.0  0.65430  0.97460  0.38014  1.0000
  O   O157      1.0  0.72460  0.90430  0.36986  1.0000
  O   O158      1.0  0.77540  0.09570  0.86986  1.0000
  O   O159      1.0  0.65430  0.02540  0.61986  1.0000
  O   O160      1.0  0.84570  0.97460  0.11986  1.0000
  O   O161      1.0  0.72010  0.40220  0.32559  1.0000
  O   O162      1.0  0.77990  0.59780  0.82559  1.0000
  O   O163      1.0  0.84780  0.47010  0.57559  1.0000
  O   O164      1.0  0.65220  0.52990  0.07559  1.0000
  O   O165      1.0  0.77990  0.40220  0.17441  1.0000
  O   O166      1.0  0.72010  0.59780  0.67441  1.0000
  O   O167      1.0  0.65220  0.47010  0.92441  1.0000
  O   O168      1.0  0.84780  0.52990  0.42441  1.0000
  O   O169      1.0  0.22010  0.90220  0.82559  1.0000
  O   O170      1.0  0.27990  0.09780  0.32559  1.0000
  O   O171      1.0  0.34780  0.97010  0.07559  1.0000
  O   O172      1.0  0.15220  0.02990  0.57559  1.0000
  O   O173      1.0  0.27990  0.90220  0.67441  1.0000
  O   O174      1.0  0.22010  0.09780  0.17441  1.0000
  O   O175      1.0  0.15220  0.97010  0.42441  1.0000
  O   O176      1.0  0.34780  0.02990  0.92441  1.0000
  O   O177      1.0  0.27990  0.59780  0.67441  1.0000
  O   O178      1.0  0.22010  0.40220  0.17441  1.0000
  O   O179      1.0  0.15220  0.52990  0.42441  1.0000
  O   O180      1.0  0.34780  0.47010  0.92441  1.0000
  O   O181      1.0  0.22010  0.59780  0.82559  1.0000
  O   O182      1.0  0.27990  0.40220  0.32559  1.0000
  O   O183      1.0  0.34780  0.52990  0.07559  1.0000
  O   O184      1.0  0.15220  0.47010  0.57559  1.0000
  O   O185      1.0  0.77990  0.09780  0.17441  1.0000
  O   O186      1.0  0.72010  0.90220  0.67441  1.0000
  O   O187      1.0  0.65220  0.02990  0.92441  1.0000
  O   O188      1.0  0.84780  0.97010  0.42441  1.0000
  O   O189      1.0  0.72010  0.09780  0.32559  1.0000
  O   O190      1.0  0.77990  0.90220  0.82559  1.0000
  O   O191      1.0  0.84780  0.02990  0.57559  1.0000
  O   O192      1.0  0.65220  0.97010  0.07559  1.0000
  O   O193      1.0  0.77100  0.40340  0.56816  1.0000
  O   O194      1.0  0.72900  0.59660  0.06816  1.0000
  O   O195      1.0  0.84660  0.52100  0.81816  1.0000
  O   O196      1.0  0.65340  0.47900  0.31816  1.0000
  O   O197      1.0  0.72900  0.40340  0.93184  1.0000
  O   O198      1.0  0.77100  0.59660  0.43184  1.0000
  O   O199      1.0  0.65340  0.52100  0.68184  1.0000
  O   O200      1.0  0.84660  0.47900  0.18184  1.0000
  O   O201      1.0  0.27100  0.90340  0.06816  1.0000
  O   O202      1.0  0.22900  0.09660  0.56816  1.0000
  O   O203      1.0  0.34660  0.02100  0.31816  1.0000
  O   O204      1.0  0.15340  0.97900  0.81816  1.0000
  O   O205      1.0  0.22900  0.90340  0.43184  1.0000
  O   O206      1.0  0.27100  0.09660  0.93184  1.0000
  O   O207      1.0  0.15340  0.02100  0.18184  1.0000
  O   O208      1.0  0.34660  0.97900  0.68184  1.0000
  O   O209      1.0  0.22900  0.59660  0.43184  1.0000
  O   O210      1.0  0.27100  0.40340  0.93184  1.0000
  O   O211      1.0  0.15340  0.47900  0.18184  1.0000
  O   O212      1.0  0.34660  0.52100  0.68184  1.0000
  O   O213      1.0  0.27100  0.59660  0.06816  1.0000
  O   O214      1.0  0.22900  0.40340  0.56816  1.0000
  O   O215      1.0  0.34660  0.47900  0.31816  1.0000
  O   O216      1.0  0.15340  0.52100  0.81816  1.0000
  O   O217      1.0  0.72900  0.09660  0.93184  1.0000
  O   O218      1.0  0.77100  0.90340  0.43184  1.0000
  O   O219      1.0  0.65340  0.97900  0.68184  1.0000
  O   O220      1.0  0.84660  0.02100  0.18184  1.0000
  O   O221      1.0  0.77100  0.09660  0.56816  1.0000
  O   O222      1.0  0.72900  0.90340  0.06816  1.0000
  O   O223      1.0  0.84660  0.97900  0.81816  1.0000
  O   O224      1.0  0.65340  0.02100  0.31816  1.0000
  O   O225      1.0  0.81950  0.25000  0.44200  1.0000
  O   O226      1.0  0.68050  0.75000  0.94200  1.0000
  O   O227      1.0  0.00000  0.56950  0.69200  1.0000
  O   O228      1.0  0.50000  0.43050  0.19200  1.0000
  O   O229      1.0  0.68050  0.25000  0.05800  1.0000
  O   O230      1.0  0.81950  0.75000  0.55800  1.0000
  O   O231      1.0  0.50000  0.56950  0.80800  1.0000
  O   O232      1.0  0.00000  0.43050  0.30800  1.0000
  O   O233      1.0  0.31950  0.75000  0.94200  1.0000
  O   O234      1.0  0.18050  0.25000  0.44200  1.0000
  O   O235      1.0  0.50000  0.06950  0.19200  1.0000
  O   O236      1.0  0.00000  0.93050  0.69200  1.0000
  O   O237      1.0  0.18050  0.75000  0.55800  1.0000
  O   O238      1.0  0.31950  0.25000  0.05800  1.0000
  O   O239      1.0  0.00000  0.06950  0.30800  1.0000
  O   O240      1.0  0.50000  0.93050  0.80800  1.0000
  N   N1        1.0  0.75460  0.25000  0.51075  1.0000
  N   N2        1.0  0.74540  0.75000  0.01075  1.0000
  N   N3        1.0  0.00000  0.50460  0.76075  1.0000
  N   N4        1.0  0.50000  0.49540  0.26075  1.0000
  N   N5        1.0  0.74540  0.25000  0.98925  1.0000
  N   N6        1.0  0.75460  0.75000  0.48925  1.0000
  N   N7        1.0  0.50000  0.50460  0.73925  1.0000
  N   N8        1.0  0.00000  0.49540  0.23925  1.0000
  N   N9        1.0  0.25460  0.75000  0.01075  1.0000
  N   N10       1.0  0.24540  0.25000  0.51075  1.0000
  N   N11       1.0  0.50000  0.00460  0.26075  1.0000
  N   N12       1.0  0.00000  0.99540  0.76075  1.0000
  N   N13       1.0  0.24540  0.75000  0.48925  1.0000
  N   N14       1.0  0.25460  0.25000  0.98925  1.0000
  N   N15       1.0  0.00000  0.00460  0.23925  1.0000
  N   N16       1.0  0.50000  0.99540  0.73925  1.0000
  N   N17       1.0  0.75000  0.63490  0.25000  1.0000
  N   N18       1.0  0.75000  0.36510  0.75000  1.0000
  N   N19       1.0  0.61510  0.50000  0.50000  1.0000
  N   N20       1.0  0.88490  0.50000  0.00000  1.0000
  N   N21       1.0  0.25000  0.13490  0.75000  1.0000
  N   N22       1.0  0.25000  0.86510  0.25000  1.0000
  N   N23       1.0  0.11510  0.00000  0.00000  1.0000
  N   N24       1.0  0.38490  0.00000  0.50000  1.0000
  N   N25       1.0  0.25000  0.36510  0.75000  1.0000
  N   N26       1.0  0.25000  0.63490  0.25000  1.0000
  N   N27       1.0  0.38490  0.50000  0.50000  1.0000
  N   N28       1.0  0.11510  0.50000  0.00000  1.0000
  N   N29       1.0  0.75000  0.86510  0.25000  1.0000
  N   N30       1.0  0.75000  0.13490  0.75000  1.0000
  N   N31       1.0  0.88490  0.00000  0.00000  1.0000
  N   N32       1.0  0.61510  0.00000  0.50000  1.0000
  N   N33       1.0  0.73960  0.36600  0.44665  1.0000
  N   N34       1.0  0.76040  0.63400  0.94665  1.0000
  N   N35       1.0  0.88400  0.48960  0.69665  1.0000
  N   N36       1.0  0.61600  0.51040  0.19665  1.0000
  N   N37       1.0  0.76040  0.36600  0.05335  1.0000
  N   N38       1.0  0.73960  0.63400  0.55335  1.0000
  N   N39       1.0  0.61600  0.48960  0.80335  1.0000
  N   N40       1.0  0.88400  0.51040  0.30335  1.0000
  N   N41       1.0  0.23960  0.86600  0.94665  1.0000
  N   N42       1.0  0.26040  0.13400  0.44665  1.0000
  N   N43       1.0  0.38400  0.98960  0.19665  1.0000
  N   N44       1.0  0.11600  0.01040  0.69665  1.0000
  N   N45       1.0  0.26040  0.86600  0.55335  1.0000
  N   N46       1.0  0.23960  0.13400  0.05335  1.0000
  N   N47       1.0  0.11600  0.98960  0.30335  1.0000
  N   N48       1.0  0.38400  0.01040  0.80335  1.0000
  N   N49       1.0  0.26040  0.63400  0.55335  1.0000
  N   N50       1.0  0.23960  0.36600  0.05335  1.0000
  N   N51       1.0  0.11600  0.51040  0.30335  1.0000
  N   N52       1.0  0.38400  0.48960  0.80335  1.0000
  N   N53       1.0  0.23960  0.63400  0.94665  1.0000
  N   N54       1.0  0.26040  0.36600  0.44665  1.0000
  N   N55       1.0  0.38400  0.51040  0.19665  1.0000
  N   N56       1.0  0.11600  0.48960  0.69665  1.0000
  N   N57       1.0  0.76040  0.13400  0.05335  1.0000
  N   N58       1.0  0.73960  0.86600  0.55335  1.0000
  N   N59       1.0  0.61600  0.01040  0.80335  1.0000
  N   N60       1.0  0.88400  0.98960  0.30335  1.0000
  N   N61       1.0  0.73960  0.13400  0.44665  1.0000
  N   N62       1.0  0.76040  0.86600  0.94665  1.0000
  N   N63       1.0  0.88400  0.01040  0.69665  1.0000
  N   N64       1.0  0.61600  0.98960  0.19665  1.0000
  N   N65       1.0  0.73400  0.75000  0.31407  1.0000
  N   N66       1.0  0.76600  0.25000  0.81407  1.0000
  N   N67       1.0  0.50000  0.48400  0.56407  1.0000
  N   N68       1.0  0.00000  0.51600  0.06407  1.0000
  N   N69       1.0  0.76600  0.75000  0.18593  1.0000
  N   N70       1.0  0.73400  0.25000  0.68593  1.0000
  N   N71       1.0  0.00000  0.48400  0.93593  1.0000
  N   N72       1.0  0.50000  0.51600  0.43593  1.0000
  N   N73       1.0  0.23400  0.25000  0.81407  1.0000
  N   N74       1.0  0.26600  0.75000  0.31407  1.0000
  N   N75       1.0  0.00000  0.98400  0.06407  1.0000
  N   N76       1.0  0.50000  0.01600  0.56407  1.0000
  N   N77       1.0  0.26600  0.25000  0.68593  1.0000
  N   N78       1.0  0.23400  0.75000  0.18593  1.0000
  N   N79       1.0  0.50000  0.98400  0.43593  1.0000
  N   N80       1.0  0.00000  0.01600  0.93593  1.0000
  C   C1        1.0  0.75190  0.28760  0.49786  1.0000
  C   C2        1.0  0.74810  0.71240  0.99786  1.0000
  C   C3        1.0  0.96240  0.50190  0.74786  1.0000
  C   C4        1.0  0.53760  0.49810  0.24786  1.0000
  C   C5        1.0  0.74810  0.28760  0.00214  1.0000
  C   C6        1.0  0.75190  0.71240  0.50214  1.0000
  C   C7        1.0  0.53760  0.50190  0.75214  1.0000
  C   C8        1.0  0.96240  0.49810  0.25214  1.0000
  C   C9        1.0  0.25190  0.78760  0.99786  1.0000
  C   C10       1.0  0.24810  0.21240  0.49786  1.0000
  C   C11       1.0  0.46240  0.00190  0.24786  1.0000
  C   C12       1.0  0.03760  0.99810  0.74786  1.0000
  C   C13       1.0  0.24810  0.78760  0.50214  1.0000
  C   C14       1.0  0.25190  0.21240  0.00214  1.0000
  C   C15       1.0  0.03760  0.00190  0.25214  1.0000
  C   C16       1.0  0.46240  0.99810  0.75214  1.0000
  C   C17       1.0  0.24810  0.71240  0.50214  1.0000
  C   C18       1.0  0.25190  0.28760  0.00214  1.0000
  C   C19       1.0  0.03760  0.49810  0.25214  1.0000
  C   C20       1.0  0.46240  0.50190  0.75214  1.0000
  C   C21       1.0  0.25190  0.71240  0.99786  1.0000
  C   C22       1.0  0.24810  0.28760  0.49786  1.0000
  C   C23       1.0  0.46240  0.49810  0.24786  1.0000
  C   C24       1.0  0.03760  0.50190  0.74786  1.0000
  C   C25       1.0  0.74810  0.21240  0.00214  1.0000
  C   C26       1.0  0.75190  0.78760  0.50214  1.0000
  C   C27       1.0  0.53760  0.99810  0.75214  1.0000
  C   C28       1.0  0.96240  0.00190  0.25214  1.0000
  C   C29       1.0  0.75190  0.21240  0.49786  1.0000
  C   C30       1.0  0.74810  0.78760  0.99786  1.0000
  C   C31       1.0  0.96240  0.99810  0.74786  1.0000
  C   C32       1.0  0.53760  0.00190  0.24786  1.0000
  N   N81       1.0  0.74560  0.29760  0.47231  1.0000
  N   N82       1.0  0.75440  0.70240  0.97231  1.0000
  N   N83       1.0  0.95240  0.49560  0.72231  1.0000
  N   N84       1.0  0.54760  0.50440  0.22231  1.0000
  N   N85       1.0  0.75440  0.29760  0.02769  1.0000
  N   N86       1.0  0.74560  0.70240  0.52769  1.0000
  N   N87       1.0  0.54760  0.49560  0.77769  1.0000
  N   N88       1.0  0.95240  0.50440  0.27769  1.0000
  N   N89       1.0  0.24560  0.79760  0.97231  1.0000
  N   N90       1.0  0.25440  0.20240  0.47231  1.0000
  N   N91       1.0  0.45240  0.99560  0.22231  1.0000
  N   N92       1.0  0.04760  0.00440  0.72231  1.0000
  N   N93       1.0  0.25440  0.79760  0.52769  1.0000
  N   N94       1.0  0.24560  0.20240  0.02769  1.0000
  N   N95       1.0  0.04760  0.99560  0.27769  1.0000
  N   N96       1.0  0.45240  0.00440  0.77769  1.0000
  N   N97       1.0  0.25440  0.70240  0.52769  1.0000
  N   N98       1.0  0.24560  0.29760  0.02769  1.0000
  N   N99       1.0  0.04760  0.50440  0.27769  1.0000
  N   N100      1.0  0.45240  0.49560  0.77769  1.0000
  N   N101      1.0  0.24560  0.70240  0.97231  1.0000
  N   N102      1.0  0.25440  0.29760  0.47231  1.0000
  N   N103      1.0  0.45240  0.50440  0.22231  1.0000
  N   N104      1.0  0.04760  0.49560  0.72231  1.0000
  N   N105      1.0  0.75440  0.20240  0.02769  1.0000
  N   N106      1.0  0.74560  0.79760  0.52769  1.0000
  N   N107      1.0  0.54760  0.00440  0.77769  1.0000
  N   N108      1.0  0.95240  0.99560  0.27769  1.0000
  N   N109      1.0  0.74560  0.20240  0.47231  1.0000
  N   N110      1.0  0.75440  0.79760  0.97231  1.0000
  N   N111      1.0  0.95240  0.00440  0.72231  1.0000
  N   N112      1.0  0.54760  0.99560  0.22231  1.0000
  N   N113      1.0  0.73650  0.29640  0.42124  1.0000
  N   N114      1.0  0.76350  0.70360  0.92124  1.0000
  N   N115      1.0  0.95360  0.48650  0.67124  1.0000
  N   N116      1.0  0.54640  0.51350  0.17124  1.0000
  N   N117      1.0  0.76350  0.29640  0.07876  1.0000
  N   N118      1.0  0.73650  0.70360  0.57876  1.0000
  N   N119      1.0  0.54640  0.48650  0.82876  1.0000
  N   N120      1.0  0.95360  0.51350  0.32876  1.0000
  N   N121      1.0  0.23650  0.79640  0.92124  1.0000
  N   N122      1.0  0.26350  0.20360  0.42124  1.0000
  N   N123      1.0  0.45360  0.98650  0.17124  1.0000
  N   N124      1.0  0.04640  0.01350  0.67124  1.0000
  N   N125      1.0  0.26350  0.79640  0.57876  1.0000
  N   N126      1.0  0.23650  0.20360  0.07876  1.0000
  N   N127      1.0  0.04640  0.98650  0.32876  1.0000
  N   N128      1.0  0.45360  0.01350  0.82876  1.0000
  N   N129      1.0  0.26350  0.70360  0.57876  1.0000
  N   N130      1.0  0.23650  0.29640  0.07876  1.0000
  N   N131      1.0  0.04640  0.51350  0.32876  1.0000
  N   N132      1.0  0.45360  0.48650  0.82876  1.0000
  N   N133      1.0  0.23650  0.70360  0.92124  1.0000
  N   N134      1.0  0.26350  0.29640  0.42124  1.0000
  N   N135      1.0  0.45360  0.51350  0.17124  1.0000
  N   N136      1.0  0.04640  0.48650  0.67124  1.0000
  N   N137      1.0  0.76350  0.20360  0.07876  1.0000
  N   N138      1.0  0.73650  0.79640  0.57876  1.0000
  N   N139      1.0  0.54640  0.01350  0.82876  1.0000
  N   N140      1.0  0.95360  0.98650  0.32876  1.0000
  N   N141      1.0  0.73650  0.20360  0.42124  1.0000
  N   N142      1.0  0.76350  0.79640  0.92124  1.0000
  N   N143      1.0  0.95360  0.01350  0.67124  1.0000
  N   N144      1.0  0.54640  0.98650  0.17124  1.0000
  N   N145      1.0  0.72960  0.25000  0.38395  1.0000
  N   N146      1.0  0.77040  0.75000  0.88395  1.0000
  N   N147      1.0  0.00000  0.47960  0.63395  1.0000
  N   N148      1.0  0.50000  0.52040  0.13395  1.0000
  N   N149      1.0  0.77040  0.25000  0.11605  1.0000
  N   N150      1.0  0.72960  0.75000  0.61605  1.0000
  N   N151      1.0  0.50000  0.47960  0.86605  1.0000
  N   N152      1.0  0.00000  0.52040  0.36605  1.0000
  N   N153      1.0  0.22960  0.75000  0.88395  1.0000
  N   N154      1.0  0.27040  0.25000  0.38395  1.0000
  N   N155      1.0  0.50000  0.97960  0.13395  1.0000
  N   N156      1.0  0.00000  0.02040  0.63395  1.0000
  N   N157      1.0  0.27040  0.75000  0.61605  1.0000
  N   N158      1.0  0.22960  0.25000  0.11605  1.0000
  N   N159      1.0  0.00000  0.97960  0.36605  1.0000
  N   N160      1.0  0.50000  0.02040  0.86605  1.0000
  N   N161      1.0  0.74310  0.70400  0.27544  1.0000
  N   N162      1.0  0.75690  0.29600  0.77544  1.0000
  N   N163      1.0  0.54600  0.49310  0.52544  1.0000
  N   N164      1.0  0.95400  0.50690  0.02544  1.0000
  N   N165      1.0  0.75690  0.70400  0.22456  1.0000
  N   N166      1.0  0.74310  0.29600  0.72456  1.0000
  N   N167      1.0  0.95400  0.49310  0.97456  1.0000
  N   N168      1.0  0.54600  0.50690  0.47456  1.0000
  N   N169      1.0  0.24310  0.20400  0.77544  1.0000
  N   N170      1.0  0.25690  0.79600  0.27544  1.0000
  N   N171      1.0  0.04600  0.99310  0.02544  1.0000
  N   N172      1.0  0.45400  0.00690  0.52544  1.0000
  N   N173      1.0  0.25690  0.20400  0.72456  1.0000
  N   N174      1.0  0.24310  0.79600  0.22456  1.0000
  N   N175      1.0  0.45400  0.99310  0.47456  1.0000
  N   N176      1.0  0.04600  0.00690  0.97456  1.0000
  N   N177      1.0  0.25690  0.29600  0.72456  1.0000
  N   N178      1.0  0.24310  0.70400  0.22456  1.0000
  N   N179      1.0  0.45400  0.50690  0.47456  1.0000
  N   N180      1.0  0.04600  0.49310  0.97456  1.0000
  N   N181      1.0  0.24310  0.29600  0.77544  1.0000
  N   N182      1.0  0.25690  0.70400  0.27544  1.0000
  N   N183      1.0  0.04600  0.50690  0.02544  1.0000
  N   N184      1.0  0.45400  0.49310  0.52544  1.0000
  N   N185      1.0  0.75690  0.79600  0.22456  1.0000
  N   N186      1.0  0.74310  0.20400  0.72456  1.0000
  N   N187      1.0  0.95400  0.00690  0.97456  1.0000
  N   N188      1.0  0.54600  0.99310  0.47456  1.0000
  N   N189      1.0  0.74310  0.79600  0.27544  1.0000
  N   N190      1.0  0.75690  0.20400  0.77544  1.0000
  N   N191      1.0  0.54600  0.00690  0.52544  1.0000
  N   N192      1.0  0.95400  0.99310  0.02544  1.0000
  C   C33       1.0  0.74490  0.65670  0.27158  1.0000
  C   C34       1.0  0.75510  0.34330  0.77158  1.0000
  C   C35       1.0  0.59330  0.49490  0.52158  1.0000
  C   C36       1.0  0.90670  0.50510  0.02158  1.0000
  C   C37       1.0  0.75510  0.65670  0.22842  1.0000
  C   C38       1.0  0.74490  0.34330  0.72842  1.0000
  C   C39       1.0  0.90670  0.49490  0.97842  1.0000
  C   C40       1.0  0.59330  0.50510  0.47842  1.0000
  C   C41       1.0  0.24490  0.15670  0.77158  1.0000
  C   C42       1.0  0.25510  0.84330  0.27158  1.0000
  C   C43       1.0  0.09330  0.99490  0.02158  1.0000
  C   C44       1.0  0.40670  0.00510  0.52158  1.0000
  C   C45       1.0  0.25510  0.15670  0.72842  1.0000
  C   C46       1.0  0.24490  0.84330  0.22842  1.0000
  C   C47       1.0  0.40670  0.99490  0.47842  1.0000
  C   C48       1.0  0.09330  0.00510  0.97842  1.0000
  C   C49       1.0  0.25510  0.34330  0.72842  1.0000
  C   C50       1.0  0.24490  0.65670  0.22842  1.0000
  C   C51       1.0  0.40670  0.50510  0.47842  1.0000
  C   C52       1.0  0.09330  0.49490  0.97842  1.0000
  C   C53       1.0  0.24490  0.34330  0.77158  1.0000
  C   C54       1.0  0.25510  0.65670  0.27158  1.0000
  C   C55       1.0  0.09330  0.50510  0.02158  1.0000
  C   C56       1.0  0.40670  0.49490  0.52158  1.0000
  C   C57       1.0  0.75510  0.84330  0.22842  1.0000
  C   C58       1.0  0.74490  0.15670  0.72842  1.0000
  C   C59       1.0  0.90670  0.00510  0.97842  1.0000
  C   C60       1.0  0.59330  0.99490  0.47842  1.0000
  C   C61       1.0  0.74490  0.84330  0.27158  1.0000
  C   C62       1.0  0.75510  0.15670  0.77158  1.0000
  C   C63       1.0  0.59330  0.00510  0.52158  1.0000
  C   C64       1.0  0.90670  0.99490  0.02158  1.0000
  C   C65       1.0  0.75330  0.36800  0.49287  1.0000
  C   C66       1.0  0.74670  0.63200  0.99287  1.0000
  C   C67       1.0  0.88200  0.50330  0.74287  1.0000
  C   C68       1.0  0.61800  0.49670  0.24287  1.0000
  C   C69       1.0  0.74670  0.36800  0.00713  1.0000
  C   C70       1.0  0.75330  0.63200  0.50713  1.0000
  C   C71       1.0  0.61800  0.50330  0.75713  1.0000
  C   C72       1.0  0.88200  0.49670  0.25713  1.0000
  C   C73       1.0  0.25330  0.86800  0.99287  1.0000
  C   C74       1.0  0.24670  0.13200  0.49287  1.0000
  C   C75       1.0  0.38200  0.00330  0.24287  1.0000
  C   C76       1.0  0.11800  0.99670  0.74287  1.0000
  C   C77       1.0  0.24670  0.86800  0.50713  1.0000
  C   C78       1.0  0.25330  0.13200  0.00713  1.0000
  C   C79       1.0  0.11800  0.00330  0.25713  1.0000
  C   C80       1.0  0.38200  0.99670  0.75713  1.0000
  C   C81       1.0  0.24670  0.63200  0.50713  1.0000
  C   C82       1.0  0.25330  0.36800  0.00713  1.0000
  C   C83       1.0  0.11800  0.49670  0.25713  1.0000
  C   C84       1.0  0.38200  0.50330  0.75713  1.0000
  C   C85       1.0  0.25330  0.63200  0.99287  1.0000
  C   C86       1.0  0.24670  0.36800  0.49287  1.0000
  C   C87       1.0  0.38200  0.49670  0.24287  1.0000
  C   C88       1.0  0.11800  0.50330  0.74287  1.0000
  C   C89       1.0  0.74670  0.13200  0.00713  1.0000
  C   C90       1.0  0.75330  0.86800  0.50713  1.0000
  C   C91       1.0  0.61800  0.99670  0.75713  1.0000
  C   C92       1.0  0.88200  0.00330  0.25713  1.0000
  C   C93       1.0  0.75330  0.13200  0.49287  1.0000
  C   C94       1.0  0.74670  0.86800  0.99287  1.0000
  C   C95       1.0  0.88200  0.99670  0.74287  1.0000
  C   C96       1.0  0.61800  0.00330  0.24287  1.0000
  C   C97       1.0  0.75510  0.41370  0.49912  1.0000
  C   C98       1.0  0.74490  0.58630  0.99912  1.0000
  C   C99       1.0  0.83630  0.50510  0.74912  1.0000
  C   C100      1.0  0.66370  0.49490  0.24912  1.0000
  C   C101      1.0  0.74490  0.41370  0.00088  1.0000
  C   C102      1.0  0.75510  0.58630  0.50088  1.0000
  C   C103      1.0  0.66370  0.50510  0.75088  1.0000
  C   C104      1.0  0.83630  0.49490  0.25088  1.0000
  C   C105      1.0  0.25510  0.91370  0.99912  1.0000
  C   C106      1.0  0.24490  0.08630  0.49912  1.0000
  C   C107      1.0  0.33630  0.00510  0.24912  1.0000
  C   C108      1.0  0.16370  0.99490  0.74912  1.0000
  C   C109      1.0  0.24490  0.91370  0.50088  1.0000
  C   C110      1.0  0.25510  0.08630  0.00088  1.0000
  C   C111      1.0  0.16370  0.00510  0.25088  1.0000
  C   C112      1.0  0.33630  0.99490  0.75088  1.0000
  C   C113      1.0  0.24490  0.58630  0.50088  1.0000
  C   C114      1.0  0.25510  0.41370  0.00088  1.0000
  C   C115      1.0  0.16370  0.49490  0.25088  1.0000
  C   C116      1.0  0.33630  0.50510  0.75088  1.0000
  C   C117      1.0  0.25510  0.58630  0.99912  1.0000
  C   C118      1.0  0.24490  0.41370  0.49912  1.0000
  C   C119      1.0  0.33630  0.49490  0.24912  1.0000
  C   C120      1.0  0.16370  0.50510  0.74912  1.0000
  C   C121      1.0  0.74490  0.08630  0.00088  1.0000
  C   C122      1.0  0.75510  0.91370  0.50088  1.0000
  C   C123      1.0  0.66370  0.99490  0.75088  1.0000
  C   C124      1.0  0.83630  0.00510  0.25088  1.0000
  C   C125      1.0  0.75510  0.08630  0.49912  1.0000
  C   C126      1.0  0.74490  0.91370  0.99912  1.0000
  C   C127      1.0  0.83630  0.99490  0.74912  1.0000
  C   C128      1.0  0.66370  0.00510  0.24912  1.0000
  H   H65       1.0  0.75227  0.43662  0.48625  1.0000
  H   H66       1.0  0.74773  0.56338  0.98625  1.0000
  H   H67       1.0  0.81338  0.50227  0.73625  1.0000
  H   H68       1.0  0.68662  0.49773  0.23625  1.0000
  H   H69       1.0  0.74773  0.43662  0.01375  1.0000
  H   H70       1.0  0.75227  0.56338  0.51375  1.0000
  H   H71       1.0  0.68662  0.50227  0.76375  1.0000
  H   H72       1.0  0.81338  0.49773  0.26375  1.0000
  H   H73       1.0  0.25227  0.93662  0.98625  1.0000
  H   H74       1.0  0.24773  0.06338  0.48625  1.0000
  H   H75       1.0  0.31338  0.00227  0.23625  1.0000
  H   H76       1.0  0.18662  0.99773  0.73625  1.0000
  H   H77       1.0  0.24773  0.93662  0.51375  1.0000
  H   H78       1.0  0.25227  0.06338  0.01375  1.0000
  H   H79       1.0  0.18662  0.00227  0.26375  1.0000
  H   H80       1.0  0.31338  0.99773  0.76375  1.0000
  H   H81       1.0  0.24773  0.56338  0.51375  1.0000
  H   H82       1.0  0.25227  0.43662  0.01375  1.0000
  H   H83       1.0  0.18662  0.49773  0.26375  1.0000
  H   H84       1.0  0.31338  0.50227  0.76375  1.0000
  H   H85       1.0  0.25227  0.56338  0.98625  1.0000
  H   H86       1.0  0.24773  0.43662  0.48625  1.0000
  H   H87       1.0  0.31338  0.49773  0.23625  1.0000
  H   H88       1.0  0.18662  0.50227  0.73625  1.0000
  H   H89       1.0  0.74773  0.06338  0.01375  1.0000
  H   H90       1.0  0.75227  0.93662  0.51375  1.0000
  H   H91       1.0  0.68662  0.99773  0.76375  1.0000
  H   H92       1.0  0.81338  0.00227  0.26375  1.0000
  H   H93       1.0  0.75227  0.06338  0.48625  1.0000
  H   H94       1.0  0.74773  0.93662  0.98625  1.0000
  H   H95       1.0  0.81338  0.99773  0.73625  1.0000
  H   H96       1.0  0.68662  0.00227  0.23625  1.0000
  C   C129      1.0  0.76130  0.42600  0.52490  1.0000
  C   C130      1.0  0.73870  0.57400  0.02490  1.0000
  C   C131      1.0  0.82400  0.51130  0.77490  1.0000
  C   C132      1.0  0.67600  0.48870  0.27490  1.0000
  C   C133      1.0  0.73870  0.42600  0.97510  1.0000
  C   C134      1.0  0.76130  0.57400  0.47510  1.0000
  C   C135      1.0  0.67600  0.51130  0.72510  1.0000
  C   C136      1.0  0.82400  0.48870  0.22510  1.0000
  C   C137      1.0  0.26130  0.92600  0.02490  1.0000
  C   C138      1.0  0.23870  0.07400  0.52490  1.0000
  C   C139      1.0  0.32400  0.01130  0.27490  1.0000
  C   C140      1.0  0.17600  0.98870  0.77490  1.0000
  C   C141      1.0  0.23870  0.92600  0.47510  1.0000
  C   C142      1.0  0.26130  0.07400  0.97510  1.0000
  C   C143      1.0  0.17600  0.01130  0.22510  1.0000
  C   C144      1.0  0.32400  0.98870  0.72510  1.0000
  C   C145      1.0  0.23870  0.57400  0.47510  1.0000
  C   C146      1.0  0.26130  0.42600  0.97510  1.0000
  C   C147      1.0  0.17600  0.48870  0.22510  1.0000
  C   C148      1.0  0.32400  0.51130  0.72510  1.0000
  C   C149      1.0  0.26130  0.57400  0.02490  1.0000
  C   C150      1.0  0.23870  0.42600  0.52490  1.0000
  C   C151      1.0  0.32400  0.48870  0.27490  1.0000
  C   C152      1.0  0.17600  0.51130  0.77490  1.0000
  C   C153      1.0  0.73870  0.07400  0.97510  1.0000
  C   C154      1.0  0.76130  0.92600  0.47510  1.0000
  C   C155      1.0  0.67600  0.98870  0.72510  1.0000
  C   C156      1.0  0.82400  0.01130  0.22510  1.0000
  C   C157      1.0  0.76130  0.07400  0.52490  1.0000
  C   C158      1.0  0.73870  0.92600  0.02490  1.0000
  C   C159      1.0  0.82400  0.98870  0.77490  1.0000
  C   C160      1.0  0.67600  0.01130  0.27490  1.0000
  C   C161      1.0  0.76510  0.38890  0.54430  1.0000
  C   C162      1.0  0.73490  0.61110  0.04430  1.0000
  C   C163      1.0  0.86110  0.51510  0.79430  1.0000
  C   C164      1.0  0.63890  0.48490  0.29430  1.0000
  C   C165      1.0  0.73490  0.38890  0.95570  1.0000
  C   C166      1.0  0.76510  0.61110  0.45570  1.0000
  C   C167      1.0  0.63890  0.51510  0.70570  1.0000
  C   C168      1.0  0.86110  0.48490  0.20570  1.0000
  C   C169      1.0  0.26510  0.88890  0.04430  1.0000
  C   C170      1.0  0.23490  0.11110  0.54430  1.0000
  C   C171      1.0  0.36110  0.01510  0.29430  1.0000
  C   C172      1.0  0.13890  0.98490  0.79430  1.0000
  C   C173      1.0  0.23490  0.88890  0.45570  1.0000
  C   C174      1.0  0.26510  0.11110  0.95570  1.0000
  C   C175      1.0  0.13890  0.01510  0.20570  1.0000
  C   C176      1.0  0.36110  0.98490  0.70570  1.0000
  C   C177      1.0  0.23490  0.61110  0.45570  1.0000
  C   C178      1.0  0.26510  0.38890  0.95570  1.0000
  C   C179      1.0  0.13890  0.48490  0.20570  1.0000
  C   C180      1.0  0.36110  0.51510  0.70570  1.0000
  C   C181      1.0  0.26510  0.61110  0.04430  1.0000
  C   C182      1.0  0.23490  0.38890  0.54430  1.0000
  C   C183      1.0  0.36110  0.48490  0.29430  1.0000
  C   C184      1.0  0.13890  0.51510  0.79430  1.0000
  C   C185      1.0  0.73490  0.11110  0.95570  1.0000
  C   C186      1.0  0.76510  0.88890  0.45570  1.0000
  C   C187      1.0  0.63890  0.98490  0.70570  1.0000
  C   C188      1.0  0.86110  0.01510  0.20570  1.0000
  C   C189      1.0  0.76510  0.11110  0.54430  1.0000
  C   C190      1.0  0.73490  0.88890  0.04430  1.0000
  C   C191      1.0  0.86110  0.98490  0.79430  1.0000
  C   C192      1.0  0.63890  0.01510  0.29430  1.0000
  C   C193      1.0  0.75870  0.34330  0.53753  1.0000
  C   C194      1.0  0.74130  0.65670  0.03753  1.0000
  C   C195      1.0  0.90670  0.50870  0.78753  1.0000
  C   C196      1.0  0.59330  0.49130  0.28753  1.0000
  C   C197      1.0  0.74130  0.34330  0.96247  1.0000
  C   C198      1.0  0.75870  0.65670  0.46247  1.0000
  C   C199      1.0  0.59330  0.50870  0.71247  1.0000
  C   C200      1.0  0.90670  0.49130  0.21247  1.0000
  C   C201      1.0  0.25870  0.84330  0.03753  1.0000
  C   C202      1.0  0.24130  0.15670  0.53753  1.0000
  C   C203      1.0  0.40670  0.00870  0.28753  1.0000
  C   C204      1.0  0.09330  0.99130  0.78753  1.0000
  C   C205      1.0  0.24130  0.84330  0.46247  1.0000
  C   C206      1.0  0.25870  0.15670  0.96247  1.0000
  C   C207      1.0  0.09330  0.00870  0.21247  1.0000
  C   C208      1.0  0.40670  0.99130  0.71247  1.0000
  C   C209      1.0  0.24130  0.65670  0.46247  1.0000
  C   C210      1.0  0.25870  0.34330  0.96247  1.0000
  C   C211      1.0  0.09330  0.49130  0.21247  1.0000
  C   C212      1.0  0.40670  0.50870  0.71247  1.0000
  C   C213      1.0  0.25870  0.65670  0.03753  1.0000
  C   C214      1.0  0.24130  0.34330  0.53753  1.0000
  C   C215      1.0  0.40670  0.49130  0.28753  1.0000
  C   C216      1.0  0.09330  0.50870  0.78753  1.0000
  C   C217      1.0  0.74130  0.15670  0.96247  1.0000
  C   C218      1.0  0.75870  0.84330  0.46247  1.0000
  C   C219      1.0  0.59330  0.99130  0.71247  1.0000
  C   C220      1.0  0.90670  0.00870  0.21247  1.0000
  C   C221      1.0  0.75870  0.15670  0.53753  1.0000
  C   C222      1.0  0.74130  0.84330  0.03753  1.0000
  C   C223      1.0  0.90670  0.99130  0.78753  1.0000
  C   C224      1.0  0.59330  0.00870  0.28753  1.0000
  H   H97       1.0  0.75685  0.31966  0.55005  1.0000
  H   H98       1.0  0.74315  0.68034  0.05005  1.0000
  H   H99       1.0  0.93034  0.50685  0.80005  1.0000
  H   H100      1.0  0.56966  0.49315  0.30005  1.0000
  H   H101      1.0  0.74315  0.31966  0.94995  1.0000
  H   H102      1.0  0.75685  0.68034  0.44995  1.0000
  H   H103      1.0  0.56966  0.50685  0.69995  1.0000
  H   H104      1.0  0.93034  0.49315  0.19995  1.0000
  H   H105      1.0  0.25685  0.81966  0.05005  1.0000
  H   H106      1.0  0.24315  0.18034  0.55005  1.0000
  H   H107      1.0  0.43034  0.00685  0.30005  1.0000
  H   H108      1.0  0.06966  0.99315  0.80005  1.0000
  H   H109      1.0  0.24315  0.81966  0.44995  1.0000
  H   H110      1.0  0.25685  0.18034  0.94995  1.0000
  H   H111      1.0  0.06966  0.00685  0.19995  1.0000
  H   H112      1.0  0.43034  0.99315  0.69995  1.0000
  H   H113      1.0  0.24315  0.68034  0.44995  1.0000
  H   H114      1.0  0.25685  0.31966  0.94995  1.0000
  H   H115      1.0  0.06966  0.49315  0.19995  1.0000
  H   H116      1.0  0.43034  0.50685  0.69995  1.0000
  H   H117      1.0  0.25685  0.68034  0.05005  1.0000
  H   H118      1.0  0.24315  0.31966  0.55005  1.0000
  H   H119      1.0  0.43034  0.49315  0.30005  1.0000
  H   H120      1.0  0.06966  0.50685  0.80005  1.0000
  H   H121      1.0  0.74315  0.18034  0.94995  1.0000
  H   H122      1.0  0.75685  0.81966  0.44995  1.0000
  H   H123      1.0  0.56966  0.99315  0.69995  1.0000
  H   H124      1.0  0.93034  0.00685  0.19995  1.0000
  H   H125      1.0  0.75685  0.18034  0.55005  1.0000
  H   H126      1.0  0.74315  0.81966  0.05005  1.0000
  H   H127      1.0  0.93034  0.99315  0.80005  1.0000
  H   H128      1.0  0.56966  0.00685  0.30005  1.0000
  C   C225      1.0  0.75530  0.33410  0.51193  1.0000
  C   C226      1.0  0.74470  0.66590  0.01193  1.0000
  C   C227      1.0  0.91590  0.50530  0.76193  1.0000
  C   C228      1.0  0.58410  0.49470  0.26193  1.0000
  C   C229      1.0  0.74470  0.33410  0.98807  1.0000
  C   C230      1.0  0.75530  0.66590  0.48807  1.0000
  C   C231      1.0  0.58410  0.50530  0.73807  1.0000
  C   C232      1.0  0.91590  0.49470  0.23807  1.0000
  C   C233      1.0  0.25530  0.83410  0.01193  1.0000
  C   C234      1.0  0.24470  0.16590  0.51193  1.0000
  C   C235      1.0  0.41590  0.00530  0.26193  1.0000
  C   C236      1.0  0.08410  0.99470  0.76193  1.0000
  C   C237      1.0  0.24470  0.83410  0.48807  1.0000
  C   C238      1.0  0.25530  0.16590  0.98807  1.0000
  C   C239      1.0  0.08410  0.00530  0.23807  1.0000
  C   C240      1.0  0.41590  0.99470  0.73807  1.0000
  C   C241      1.0  0.24470  0.66590  0.48807  1.0000
  C   C242      1.0  0.25530  0.33410  0.98807  1.0000
  C   C243      1.0  0.08410  0.49470  0.23807  1.0000
  C   C244      1.0  0.41590  0.50530  0.73807  1.0000
  C   C245      1.0  0.25530  0.66590  0.01193  1.0000
  C   C246      1.0  0.24470  0.33410  0.51193  1.0000
  C   C247      1.0  0.41590  0.49470  0.26193  1.0000
  C   C248      1.0  0.08410  0.50530  0.76193  1.0000
  C   C249      1.0  0.74470  0.16590  0.98807  1.0000
  C   C250      1.0  0.75530  0.83410  0.48807  1.0000
  C   C251      1.0  0.58410  0.99470  0.73807  1.0000
  C   C252      1.0  0.91590  0.00530  0.23807  1.0000
  C   C253      1.0  0.75530  0.16590  0.51193  1.0000
  C   C254      1.0  0.74470  0.83410  0.01193  1.0000
  C   C255      1.0  0.91590  0.99470  0.76193  1.0000
  C   C256      1.0  0.58410  0.00530  0.26193  1.0000
  C   C257      1.0  0.74760  0.34360  0.46839  1.0000
  C   C258      1.0  0.75240  0.65640  0.96839  1.0000
  C   C259      1.0  0.90640  0.49760  0.71839  1.0000
  C   C260      1.0  0.59360  0.50240  0.21839  1.0000
  C   C261      1.0  0.75240  0.34360  0.03161  1.0000
  C   C262      1.0  0.74760  0.65640  0.53161  1.0000
  C   C263      1.0  0.59360  0.49760  0.78161  1.0000
  C   C264      1.0  0.90640  0.50240  0.28161  1.0000
  C   C265      1.0  0.24760  0.84360  0.96839  1.0000
  C   C266      1.0  0.25240  0.15640  0.46839  1.0000
  C   C267      1.0  0.40640  0.99760  0.21839  1.0000
  C   C268      1.0  0.09360  0.00240  0.71839  1.0000
  C   C269      1.0  0.25240  0.84360  0.53161  1.0000
  C   C270      1.0  0.24760  0.15640  0.03161  1.0000
  C   C271      1.0  0.09360  0.99760  0.28161  1.0000
  C   C272      1.0  0.40640  0.00240  0.78161  1.0000
  C   C273      1.0  0.25240  0.65640  0.53161  1.0000
  C   C274      1.0  0.24760  0.34360  0.03161  1.0000
  C   C275      1.0  0.09360  0.50240  0.28161  1.0000
  C   C276      1.0  0.40640  0.49760  0.78161  1.0000
  C   C277      1.0  0.24760  0.65640  0.96839  1.0000
  C   C278      1.0  0.25240  0.34360  0.46839  1.0000
  C   C279      1.0  0.40640  0.50240  0.21839  1.0000
  C   C280      1.0  0.09360  0.49760  0.71839  1.0000
  C   C281      1.0  0.75240  0.15640  0.03161  1.0000
  C   C282      1.0  0.74760  0.84360  0.53161  1.0000
  C   C283      1.0  0.59360  0.00240  0.78161  1.0000
  C   C284      1.0  0.90640  0.99760  0.28161  1.0000
  C   C285      1.0  0.74760  0.15640  0.46839  1.0000
  C   C286      1.0  0.75240  0.84360  0.96839  1.0000
  C   C287      1.0  0.90640  0.00240  0.71839  1.0000
  C   C288      1.0  0.59360  0.99760  0.21839  1.0000
  C   C289      1.0  0.73890  0.58720  0.30127  1.0000
  C   C290      1.0  0.76110  0.41280  0.80127  1.0000
  C   C291      1.0  0.66280  0.48890  0.55127  1.0000
  C   C292      1.0  0.83720  0.51110  0.05127  1.0000
  C   C293      1.0  0.76110  0.58720  0.19873  1.0000
  C   C294      1.0  0.73890  0.41280  0.69873  1.0000
  C   C295      1.0  0.83720  0.48890  0.94873  1.0000
  C   C296      1.0  0.66280  0.51110  0.44873  1.0000
  C   C297      1.0  0.23890  0.08720  0.80127  1.0000
  C   C298      1.0  0.26110  0.91280  0.30127  1.0000
  C   C299      1.0  0.16280  0.98890  0.05127  1.0000
  C   C300      1.0  0.33720  0.01110  0.55127  1.0000
  C   C301      1.0  0.26110  0.08720  0.69873  1.0000
  C   C302      1.0  0.23890  0.91280  0.19873  1.0000
  C   C303      1.0  0.33720  0.98890  0.44873  1.0000
  C   C304      1.0  0.16280  0.01110  0.94873  1.0000
  C   C305      1.0  0.26110  0.41280  0.69873  1.0000
  C   C306      1.0  0.23890  0.58720  0.19873  1.0000
  C   C307      1.0  0.33720  0.51110  0.44873  1.0000
  C   C308      1.0  0.16280  0.48890  0.94873  1.0000
  C   C309      1.0  0.23890  0.41280  0.80127  1.0000
  C   C310      1.0  0.26110  0.58720  0.30127  1.0000
  C   C311      1.0  0.16280  0.51110  0.05127  1.0000
  C   C312      1.0  0.33720  0.48890  0.55127  1.0000
  C   C313      1.0  0.76110  0.91280  0.19873  1.0000
  C   C314      1.0  0.73890  0.08720  0.69873  1.0000
  C   C315      1.0  0.83720  0.01110  0.94873  1.0000
  C   C316      1.0  0.66280  0.98890  0.44873  1.0000
  C   C317      1.0  0.73890  0.91280  0.30127  1.0000
  C   C318      1.0  0.76110  0.08720  0.80127  1.0000
  C   C319      1.0  0.66280  0.01110  0.55127  1.0000
  C   C320      1.0  0.83720  0.98890  0.05127  1.0000
  H   H129      1.0  0.74267  0.56466  0.28830  1.0000
  H   H130      1.0  0.75733  0.43534  0.78830  1.0000
  H   H131      1.0  0.68534  0.49267  0.53830  1.0000
  H   H132      1.0  0.81466  0.50733  0.03830  1.0000
  H   H133      1.0  0.75733  0.56466  0.21170  1.0000
  H   H134      1.0  0.74267  0.43534  0.71170  1.0000
  H   H135      1.0  0.81466  0.49267  0.96170  1.0000
  H   H136      1.0  0.68534  0.50733  0.46170  1.0000
  H   H137      1.0  0.24267  0.06466  0.78830  1.0000
  H   H138      1.0  0.25733  0.93534  0.28830  1.0000
  H   H139      1.0  0.18534  0.99267  0.03830  1.0000
  H   H140      1.0  0.31466  0.00733  0.53830  1.0000
  H   H141      1.0  0.25733  0.06466  0.71170  1.0000
  H   H142      1.0  0.24267  0.93534  0.21170  1.0000
  H   H143      1.0  0.31466  0.99267  0.46170  1.0000
  H   H144      1.0  0.18534  0.00733  0.96170  1.0000
  H   H145      1.0  0.25733  0.43534  0.71170  1.0000
  H   H146      1.0  0.24267  0.56466  0.21170  1.0000
  H   H147      1.0  0.31466  0.50733  0.46170  1.0000
  H   H148      1.0  0.18534  0.49267  0.96170  1.0000
  H   H149      1.0  0.24267  0.43534  0.78830  1.0000
  H   H150      1.0  0.25733  0.56466  0.28830  1.0000
  H   H151      1.0  0.18534  0.50733  0.03830  1.0000
  H   H152      1.0  0.31466  0.49267  0.53830  1.0000
  H   H153      1.0  0.75733  0.93534  0.21170  1.0000
  H   H154      1.0  0.74267  0.06466  0.71170  1.0000
  H   H155      1.0  0.81466  0.00733  0.96170  1.0000
  H   H156      1.0  0.68534  0.99267  0.46170  1.0000
  H   H157      1.0  0.74267  0.93534  0.28830  1.0000
  H   H158      1.0  0.75733  0.06466  0.78830  1.0000
  H   H159      1.0  0.68534  0.00733  0.53830  1.0000
  H   H160      1.0  0.81466  0.99267  0.03830  1.0000
  C   C321      1.0  0.74050  0.63420  0.29611  1.0000
  C   C322      1.0  0.75950  0.36580  0.79611  1.0000
  C   C323      1.0  0.61580  0.49050  0.54611  1.0000
  C   C324      1.0  0.88420  0.50950  0.04611  1.0000
  C   C325      1.0  0.75950  0.63420  0.20389  1.0000
  C   C326      1.0  0.74050  0.36580  0.70389  1.0000
  C   C327      1.0  0.88420  0.49050  0.95389  1.0000
  C   C328      1.0  0.61580  0.50950  0.45389  1.0000
  C   C329      1.0  0.24050  0.13420  0.79611  1.0000
  C   C330      1.0  0.25950  0.86580  0.29611  1.0000
  C   C331      1.0  0.11580  0.99050  0.04611  1.0000
  C   C332      1.0  0.38420  0.00950  0.54611  1.0000
  C   C333      1.0  0.25950  0.13420  0.70389  1.0000
  C   C334      1.0  0.24050  0.86580  0.20389  1.0000
  C   C335      1.0  0.38420  0.99050  0.45389  1.0000
  C   C336      1.0  0.11580  0.00950  0.95389  1.0000
  C   C337      1.0  0.25950  0.36580  0.70389  1.0000
  C   C338      1.0  0.24050  0.63420  0.20389  1.0000
  C   C339      1.0  0.38420  0.50950  0.45389  1.0000
  C   C340      1.0  0.11580  0.49050  0.95389  1.0000
  C   C341      1.0  0.24050  0.36580  0.79611  1.0000
  C   C342      1.0  0.25950  0.63420  0.29611  1.0000
  C   C343      1.0  0.11580  0.50950  0.04611  1.0000
  C   C344      1.0  0.38420  0.49050  0.54611  1.0000
  C   C345      1.0  0.75950  0.86580  0.20389  1.0000
  C   C346      1.0  0.74050  0.13420  0.70389  1.0000
  C   C347      1.0  0.88420  0.00950  0.95389  1.0000
  C   C348      1.0  0.61580  0.99050  0.45389  1.0000
  C   C349      1.0  0.74050  0.86580  0.29611  1.0000
  C   C350      1.0  0.75950  0.13420  0.79611  1.0000
  C   C351      1.0  0.61580  0.00950  0.54611  1.0000
  C   C352      1.0  0.88420  0.99050  0.04611  1.0000
  C   C353      1.0  0.73560  0.66570  0.31468  1.0000
  C   C354      1.0  0.76440  0.33430  0.81468  1.0000
  C   C355      1.0  0.58430  0.48560  0.56468  1.0000
  C   C356      1.0  0.91570  0.51440  0.06468  1.0000
  C   C357      1.0  0.76440  0.66570  0.18532  1.0000
  C   C358      1.0  0.73560  0.33430  0.68532  1.0000
  C   C359      1.0  0.91570  0.48560  0.93532  1.0000
  C   C360      1.0  0.58430  0.51440  0.43532  1.0000
  C   C361      1.0  0.23560  0.16570  0.81468  1.0000
  C   C362      1.0  0.26440  0.83430  0.31468  1.0000
  C   C363      1.0  0.08430  0.98560  0.06468  1.0000
  C   C364      1.0  0.41570  0.01440  0.56468  1.0000
  C   C365      1.0  0.26440  0.16570  0.68532  1.0000
  C   C366      1.0  0.23560  0.83430  0.18532  1.0000
  C   C367      1.0  0.41570  0.98560  0.43532  1.0000
  C   C368      1.0  0.08430  0.01440  0.93532  1.0000
  C   C369      1.0  0.26440  0.33430  0.68532  1.0000
  C   C370      1.0  0.23560  0.66570  0.18532  1.0000
  C   C371      1.0  0.41570  0.51440  0.43532  1.0000
  C   C372      1.0  0.08430  0.48560  0.93532  1.0000
  C   C373      1.0  0.23560  0.33430  0.81468  1.0000
  C   C374      1.0  0.26440  0.66570  0.31468  1.0000
  C   C375      1.0  0.08430  0.51440  0.06468  1.0000
  C   C376      1.0  0.41570  0.48560  0.56468  1.0000
  C   C377      1.0  0.76440  0.83430  0.18532  1.0000
  C   C378      1.0  0.73560  0.16570  0.68532  1.0000
  C   C379      1.0  0.91570  0.01440  0.93532  1.0000
  C   C380      1.0  0.58430  0.98560  0.43532  1.0000
  C   C381      1.0  0.73560  0.83430  0.31468  1.0000
  C   C382      1.0  0.76440  0.16570  0.81468  1.0000
  C   C383      1.0  0.58430  0.01440  0.56468  1.0000
  C   C384      1.0  0.91570  0.98560  0.06468  1.0000
  C   C385      1.0  0.73160  0.65770  0.34047  1.0000
  C   C386      1.0  0.76840  0.34230  0.84047  1.0000
  C   C387      1.0  0.59230  0.48160  0.59047  1.0000
  C   C388      1.0  0.90770  0.51840  0.09047  1.0000
  C   C389      1.0  0.76840  0.65770  0.15953  1.0000
  C   C390      1.0  0.73160  0.34230  0.65953  1.0000
  C   C391      1.0  0.90770  0.48160  0.90953  1.0000
  C   C392      1.0  0.59230  0.51840  0.40953  1.0000
  C   C393      1.0  0.23160  0.15770  0.84047  1.0000
  C   C394      1.0  0.26840  0.84230  0.34047  1.0000
  C   C395      1.0  0.09230  0.98160  0.09047  1.0000
  C   C396      1.0  0.40770  0.01840  0.59047  1.0000
  C   C397      1.0  0.26840  0.15770  0.65953  1.0000
  C   C398      1.0  0.23160  0.84230  0.15953  1.0000
  C   C399      1.0  0.40770  0.98160  0.40953  1.0000
  C   C400      1.0  0.09230  0.01840  0.90953  1.0000
  C   C401      1.0  0.26840  0.34230  0.65953  1.0000
  C   C402      1.0  0.23160  0.65770  0.15953  1.0000
  C   C403      1.0  0.40770  0.51840  0.40953  1.0000
  C   C404      1.0  0.09230  0.48160  0.90953  1.0000
  C   C405      1.0  0.23160  0.34230  0.84047  1.0000
  C   C406      1.0  0.26840  0.65770  0.34047  1.0000
  C   C407      1.0  0.09230  0.51840  0.09047  1.0000
  C   C408      1.0  0.40770  0.48160  0.59047  1.0000
  C   C409      1.0  0.76840  0.84230  0.15953  1.0000
  C   C410      1.0  0.73160  0.15770  0.65953  1.0000
  C   C411      1.0  0.90770  0.01840  0.90953  1.0000
  C   C412      1.0  0.59230  0.98160  0.40953  1.0000
  C   C413      1.0  0.73160  0.84230  0.34047  1.0000
  C   C414      1.0  0.76840  0.15770  0.84047  1.0000
  C   C415      1.0  0.59230  0.01840  0.59047  1.0000
  C   C416      1.0  0.90770  0.98160  0.09047  1.0000
  H   H161      1.0  0.72966  0.68129  0.35297  1.0000
  H   H162      1.0  0.77034  0.31871  0.85297  1.0000
  H   H163      1.0  0.56871  0.47966  0.60297  1.0000
  H   H164      1.0  0.93129  0.52034  0.10297  1.0000
  H   H165      1.0  0.77034  0.68129  0.14703  1.0000
  H   H166      1.0  0.72966  0.31871  0.64703  1.0000
  H   H167      1.0  0.93129  0.47966  0.89703  1.0000
  H   H168      1.0  0.56871  0.52034  0.39703  1.0000
  H   H169      1.0  0.22966  0.18129  0.85297  1.0000
  H   H170      1.0  0.27034  0.81870  0.35297  1.0000
  H   H171      1.0  0.06871  0.97966  0.10297  1.0000
  H   H172      1.0  0.43129  0.02034  0.60297  1.0000
  H   H173      1.0  0.27034  0.18129  0.64703  1.0000
  H   H174      1.0  0.22966  0.81870  0.14703  1.0000
  H   H175      1.0  0.43129  0.97966  0.39703  1.0000
  H   H176      1.0  0.06871  0.02034  0.89703  1.0000
  H   H177      1.0  0.27034  0.31871  0.64703  1.0000
  H   H178      1.0  0.22966  0.68129  0.14703  1.0000
  H   H179      1.0  0.43129  0.52034  0.39703  1.0000
  H   H180      1.0  0.06871  0.47966  0.89703  1.0000
  H   H181      1.0  0.22966  0.31871  0.85297  1.0000
  H   H182      1.0  0.27034  0.68129  0.35297  1.0000
  H   H183      1.0  0.06871  0.52034  0.10297  1.0000
  H   H184      1.0  0.43129  0.47966  0.60297  1.0000
  H   H185      1.0  0.77034  0.81870  0.14703  1.0000
  H   H186      1.0  0.72966  0.18129  0.64703  1.0000
  H   H187      1.0  0.93129  0.02034  0.89703  1.0000
  H   H188      1.0  0.56871  0.97966  0.39703  1.0000
  H   H189      1.0  0.72966  0.81870  0.35297  1.0000
  H   H190      1.0  0.77034  0.18129  0.85297  1.0000
  H   H191      1.0  0.56871  0.02034  0.60297  1.0000
  H   H192      1.0  0.93129  0.97966  0.10297  1.0000
  C   C417      1.0  0.73070  0.61000  0.34646  1.0000
  C   C418      1.0  0.76930  0.39000  0.84646  1.0000
  C   C419      1.0  0.64000  0.48070  0.59646  1.0000
  C   C420      1.0  0.86000  0.51930  0.09646  1.0000
  C   C421      1.0  0.76930  0.61000  0.15354  1.0000
  C   C422      1.0  0.73070  0.39000  0.65354  1.0000
  C   C423      1.0  0.86000  0.48070  0.90354  1.0000
  C   C424      1.0  0.64000  0.51930  0.40354  1.0000
  C   C425      1.0  0.23070  0.11000  0.84646  1.0000
  C   C426      1.0  0.26930  0.89000  0.34646  1.0000
  C   C427      1.0  0.14000  0.98070  0.09646  1.0000
  C   C428      1.0  0.36000  0.01930  0.59646  1.0000
  C   C429      1.0  0.26930  0.11000  0.65354  1.0000
  C   C430      1.0  0.23070  0.89000  0.15354  1.0000
  C   C431      1.0  0.36000  0.98070  0.40354  1.0000
  C   C432      1.0  0.14000  0.01930  0.90354  1.0000
  C   C433      1.0  0.26930  0.39000  0.65354  1.0000
  C   C434      1.0  0.23070  0.61000  0.15354  1.0000
  C   C435      1.0  0.36000  0.51930  0.40354  1.0000
  C   C436      1.0  0.14000  0.48070  0.90354  1.0000
  C   C437      1.0  0.23070  0.39000  0.84646  1.0000
  C   C438      1.0  0.26930  0.61000  0.34646  1.0000
  C   C439      1.0  0.14000  0.51930  0.09646  1.0000
  C   C440      1.0  0.36000  0.48070  0.59646  1.0000
  C   C441      1.0  0.76930  0.89000  0.15354  1.0000
  C   C442      1.0  0.73070  0.11000  0.65354  1.0000
  C   C443      1.0  0.86000  0.01930  0.90354  1.0000
  C   C444      1.0  0.64000  0.98070  0.40354  1.0000
  C   C445      1.0  0.73070  0.89000  0.34646  1.0000
  C   C446      1.0  0.76930  0.11000  0.84646  1.0000
  C   C447      1.0  0.64000  0.01930  0.59646  1.0000
  C   C448      1.0  0.86000  0.98070  0.09646  1.0000
  C   C449      1.0  0.73150  0.57590  0.32687  1.0000
  C   C450      1.0  0.76850  0.42410  0.82687  1.0000
  C   C451      1.0  0.67410  0.48150  0.57687  1.0000
  C   C452      1.0  0.82590  0.51850  0.07687  1.0000
  C   C453      1.0  0.76850  0.57590  0.17313  1.0000
  C   C454      1.0  0.73150  0.42410  0.67313  1.0000
  C   C455      1.0  0.82590  0.48150  0.92313  1.0000
  C   C456      1.0  0.67410  0.51850  0.42313  1.0000
  C   C457      1.0  0.23150  0.07590  0.82687  1.0000
  C   C458      1.0  0.26850  0.92410  0.32687  1.0000
  C   C459      1.0  0.17410  0.98150  0.07687  1.0000
  C   C460      1.0  0.32590  0.01850  0.57687  1.0000
  C   C461      1.0  0.26850  0.07590  0.67313  1.0000
  C   C462      1.0  0.23150  0.92410  0.17313  1.0000
  C   C463      1.0  0.32590  0.98150  0.42313  1.0000
  C   C464      1.0  0.17410  0.01850  0.92313  1.0000
  C   C465      1.0  0.26850  0.42410  0.67313  1.0000
  C   C466      1.0  0.23150  0.57590  0.17313  1.0000
  C   C467      1.0  0.32590  0.51850  0.42313  1.0000
  C   C468      1.0  0.17410  0.48150  0.92313  1.0000
  C   C469      1.0  0.23150  0.42410  0.82687  1.0000
  C   C470      1.0  0.26850  0.57590  0.32687  1.0000
  C   C471      1.0  0.17410  0.51850  0.07687  1.0000
  C   C472      1.0  0.32590  0.48150  0.57687  1.0000
  C   C473      1.0  0.76850  0.92410  0.17313  1.0000
  C   C474      1.0  0.73150  0.07590  0.67313  1.0000
  C   C475      1.0  0.82590  0.01850  0.92313  1.0000
  C   C476      1.0  0.67410  0.98150  0.42313  1.0000
  C   C477      1.0  0.73150  0.92410  0.32687  1.0000
  C   C478      1.0  0.76850  0.07590  0.82687  1.0000
  C   C479      1.0  0.67410  0.01850  0.57687  1.0000
  C   C480      1.0  0.82590  0.98150  0.07687  1.0000
  C   C481      1.0  0.74030  0.71150  0.30182  1.0000
  C   C482      1.0  0.75970  0.28850  0.80182  1.0000
  C   C483      1.0  0.53850  0.49030  0.55182  1.0000
  C   C484      1.0  0.96150  0.50970  0.05182  1.0000
  C   C485      1.0  0.75970  0.71150  0.19818  1.0000
  C   C486      1.0  0.74030  0.28850  0.69818  1.0000
  C   C487      1.0  0.96150  0.49030  0.94818  1.0000
  C   C488      1.0  0.53850  0.50970  0.44818  1.0000
  C   C489      1.0  0.24030  0.21150  0.80182  1.0000
  C   C490      1.0  0.25970  0.78850  0.30182  1.0000
  C   C491      1.0  0.03850  0.99030  0.05182  1.0000
  C   C492      1.0  0.46150  0.00970  0.55182  1.0000
  C   C493      1.0  0.25970  0.21150  0.69818  1.0000
  C   C494      1.0  0.24030  0.78850  0.19818  1.0000
  C   C495      1.0  0.46150  0.99030  0.44818  1.0000
  C   C496      1.0  0.03850  0.00970  0.94818  1.0000
  C   C497      1.0  0.25970  0.28850  0.69818  1.0000
  C   C498      1.0  0.24030  0.71150  0.19818  1.0000
  C   C499      1.0  0.46150  0.50970  0.44818  1.0000
  C   C500      1.0  0.03850  0.49030  0.94818  1.0000
  C   C501      1.0  0.24030  0.28850  0.80182  1.0000
  C   C502      1.0  0.25970  0.71150  0.30182  1.0000
  C   C503      1.0  0.03850  0.50970  0.05182  1.0000
  C   C504      1.0  0.46150  0.49030  0.55182  1.0000
  C   C505      1.0  0.75970  0.78850  0.19818  1.0000
  C   C506      1.0  0.74030  0.21150  0.69818  1.0000
  C   C507      1.0  0.96150  0.00970  0.94818  1.0000
  C   C508      1.0  0.53850  0.99030  0.44818  1.0000
  C   C509      1.0  0.74030  0.78850  0.30182  1.0000
  C   C510      1.0  0.75970  0.21150  0.80182  1.0000
  C   C511      1.0  0.53850  0.00970  0.55182  1.0000
  C   C512      1.0  0.96150  0.99030  0.05182  1.0000
  C   C513      1.0  0.73500  0.34280  0.42558  1.0000
  C   C514      1.0  0.76500  0.65720  0.92558  1.0000
  C   C515      1.0  0.90720  0.48500  0.67558  1.0000
  C   C516      1.0  0.59280  0.51500  0.17558  1.0000
  C   C517      1.0  0.76500  0.34280  0.07442  1.0000
  C   C518      1.0  0.73500  0.65720  0.57442  1.0000
  C   C519      1.0  0.59280  0.48500  0.82442  1.0000
  C   C520      1.0  0.90720  0.51500  0.32442  1.0000
  C   C521      1.0  0.23500  0.84280  0.92558  1.0000
  C   C522      1.0  0.26500  0.15720  0.42558  1.0000
  C   C523      1.0  0.40720  0.98500  0.17558  1.0000
  C   C524      1.0  0.09280  0.01500  0.67558  1.0000
  C   C525      1.0  0.26500  0.84280  0.57442  1.0000
  C   C526      1.0  0.23500  0.15720  0.07442  1.0000
  C   C527      1.0  0.09280  0.98500  0.32442  1.0000
  C   C528      1.0  0.40720  0.01500  0.82442  1.0000
  C   C529      1.0  0.26500  0.65720  0.57442  1.0000
  C   C530      1.0  0.23500  0.34280  0.07442  1.0000
  C   C531      1.0  0.09280  0.51500  0.32442  1.0000
  C   C532      1.0  0.40720  0.48500  0.82442  1.0000
  C   C533      1.0  0.23500  0.65720  0.92558  1.0000
  C   C534      1.0  0.26500  0.34280  0.42558  1.0000
  C   C535      1.0  0.40720  0.51500  0.17558  1.0000
  C   C536      1.0  0.09280  0.48500  0.67558  1.0000
  C   C537      1.0  0.76500  0.15720  0.07442  1.0000
  C   C538      1.0  0.73500  0.84280  0.57442  1.0000
  C   C539      1.0  0.59280  0.01500  0.82442  1.0000
  C   C540      1.0  0.90720  0.98500  0.32442  1.0000
  C   C541      1.0  0.73500  0.15720  0.42558  1.0000
  C   C542      1.0  0.76500  0.84280  0.92558  1.0000
  C   C543      1.0  0.90720  0.01500  0.67558  1.0000
  C   C544      1.0  0.59280  0.98500  0.17558  1.0000
  C   C545      1.0  0.72890  0.28840  0.39602  1.0000
  C   C546      1.0  0.77110  0.71160  0.89602  1.0000
  C   C547      1.0  0.96160  0.47890  0.64602  1.0000
  C   C548      1.0  0.53840  0.52110  0.14602  1.0000
  C   C549      1.0  0.77110  0.28840  0.10398  1.0000
  C   C550      1.0  0.72890  0.71160  0.60398  1.0000
  C   C551      1.0  0.53840  0.47890  0.85398  1.0000
  C   C552      1.0  0.96160  0.52110  0.35398  1.0000
  C   C553      1.0  0.22890  0.78840  0.89602  1.0000
  C   C554      1.0  0.27110  0.21160  0.39602  1.0000
  C   C555      1.0  0.46160  0.97890  0.14602  1.0000
  C   C556      1.0  0.03840  0.02110  0.64602  1.0000
  C   C557      1.0  0.27110  0.78840  0.60398  1.0000
  C   C558      1.0  0.22890  0.21160  0.10398  1.0000
  C   C559      1.0  0.03840  0.97890  0.35398  1.0000
  C   C560      1.0  0.46160  0.02110  0.85398  1.0000
  C   C561      1.0  0.27110  0.71160  0.60398  1.0000
  C   C562      1.0  0.22890  0.28840  0.10398  1.0000
  C   C563      1.0  0.03840  0.52110  0.35398  1.0000
  C   C564      1.0  0.46160  0.47890  0.85398  1.0000
  C   C565      1.0  0.22890  0.71160  0.89602  1.0000
  C   C566      1.0  0.27110  0.28840  0.39602  1.0000
  C   C567      1.0  0.46160  0.52110  0.14602  1.0000
  C   C568      1.0  0.03840  0.47890  0.64602  1.0000
  C   C569      1.0  0.77110  0.21160  0.10398  1.0000
  C   C570      1.0  0.72890  0.78840  0.60398  1.0000
  C   C571      1.0  0.53840  0.02110  0.85398  1.0000
  C   C572      1.0  0.96160  0.97890  0.35398  1.0000
  C   C573      1.0  0.72890  0.21160  0.39602  1.0000
  C   C574      1.0  0.77110  0.78840  0.89602  1.0000
  C   C575      1.0  0.96160  0.02110  0.64602  1.0000
  C   C576      1.0  0.53840  0.97890  0.14602  1.0000
  C   C577      1.0  0.72460  0.34190  0.35587  1.0000
  C   C578      1.0  0.77540  0.65810  0.85587  1.0000
  C   C579      1.0  0.90810  0.47460  0.60587  1.0000
  C   C580      1.0  0.59190  0.52540  0.10587  1.0000
  C   C581      1.0  0.77540  0.34190  0.14413  1.0000
  C   C582      1.0  0.72460  0.65810  0.64413  1.0000
  C   C583      1.0  0.59190  0.47460  0.89413  1.0000
  C   C584      1.0  0.90810  0.52540  0.39413  1.0000
  C   C585      1.0  0.22460  0.84190  0.85587  1.0000
  C   C586      1.0  0.27540  0.15810  0.35587  1.0000
  C   C587      1.0  0.40810  0.97460  0.10587  1.0000
  C   C588      1.0  0.09190  0.02540  0.60587  1.0000
  C   C589      1.0  0.27540  0.84190  0.64413  1.0000
  C   C590      1.0  0.22460  0.15810  0.14413  1.0000
  C   C591      1.0  0.09190  0.97460  0.39413  1.0000
  C   C592      1.0  0.40810  0.02540  0.89413  1.0000
  C   C593      1.0  0.27540  0.65810  0.64413  1.0000
  C   C594      1.0  0.22460  0.34190  0.14413  1.0000
  C   C595      1.0  0.09190  0.52540  0.39413  1.0000
  C   C596      1.0  0.40810  0.47460  0.89413  1.0000
  C   C597      1.0  0.22460  0.65810  0.85587  1.0000
  C   C598      1.0  0.27540  0.34190  0.35587  1.0000
  C   C599      1.0  0.40810  0.52540  0.10587  1.0000
  C   C600      1.0  0.09190  0.47460  0.60587  1.0000
  C   C601      1.0  0.77540  0.15810  0.14413  1.0000
  C   C602      1.0  0.72460  0.84190  0.64413  1.0000
  C   C603      1.0  0.59190  0.02540  0.89413  1.0000
  C   C604      1.0  0.90810  0.97460  0.39413  1.0000
  C   C605      1.0  0.72460  0.15810  0.35587  1.0000
  C   C606      1.0  0.77540  0.84190  0.85587  1.0000
  C   C607      1.0  0.90810  0.02540  0.60587  1.0000
  C   C608      1.0  0.59190  0.97460  0.10587  1.0000
  H   H193      1.0  0.72316  0.31852  0.34322  1.0000
  H   H194      1.0  0.77684  0.68148  0.84322  1.0000
  H   H195      1.0  0.93148  0.47316  0.59322  1.0000
  H   H196      1.0  0.56852  0.52684  0.09322  1.0000
  H   H197      1.0  0.77684  0.31852  0.15678  1.0000
  H   H198      1.0  0.72316  0.68148  0.65678  1.0000
  H   H199      1.0  0.56852  0.47316  0.90678  1.0000
  H   H200      1.0  0.93148  0.52684  0.40678  1.0000
  H   H201      1.0  0.22316  0.81852  0.84322  1.0000
  H   H202      1.0  0.27684  0.18148  0.34322  1.0000
  H   H203      1.0  0.43148  0.97316  0.09322  1.0000
  H   H204      1.0  0.06852  0.02684  0.59322  1.0000
  H   H205      1.0  0.27684  0.81852  0.65678  1.0000
  H   H206      1.0  0.22316  0.18148  0.15678  1.0000
  H   H207      1.0  0.06852  0.97316  0.40678  1.0000
  H   H208      1.0  0.43148  0.02684  0.90678  1.0000
  H   H209      1.0  0.27684  0.68148  0.65678  1.0000
  H   H210      1.0  0.22316  0.31852  0.15678  1.0000
  H   H211      1.0  0.06852  0.52684  0.40678  1.0000
  H   H212      1.0  0.43148  0.47316  0.90678  1.0000
  H   H213      1.0  0.22316  0.68148  0.84322  1.0000
  H   H214      1.0  0.27684  0.31852  0.34322  1.0000
  H   H215      1.0  0.43148  0.52684  0.09322  1.0000
  H   H216      1.0  0.06852  0.47316  0.59322  1.0000
  H   H217      1.0  0.77684  0.18148  0.15678  1.0000
  H   H218      1.0  0.72316  0.81852  0.65678  1.0000
  H   H219      1.0  0.56852  0.02684  0.90678  1.0000
  H   H220      1.0  0.93148  0.97316  0.40678  1.0000
  H   H221      1.0  0.72316  0.18148  0.34322  1.0000
  H   H222      1.0  0.77684  0.81852  0.84322  1.0000
  H   H223      1.0  0.93148  0.02684  0.59322  1.0000
  H   H224      1.0  0.56852  0.97316  0.09322  1.0000
  C   C609      1.0  0.72380  0.38730  0.34932  1.0000
  C   C610      1.0  0.77620  0.61270  0.84932  1.0000
  C   C611      1.0  0.86270  0.47380  0.59932  1.0000
  C   C612      1.0  0.63730  0.52620  0.09932  1.0000
  C   C613      1.0  0.77620  0.38730  0.15068  1.0000
  C   C614      1.0  0.72380  0.61270  0.65068  1.0000
  C   C615      1.0  0.63730  0.47380  0.90068  1.0000
  C   C616      1.0  0.86270  0.52620  0.40068  1.0000
  C   C617      1.0  0.22380  0.88730  0.84932  1.0000
  C   C618      1.0  0.27620  0.11270  0.34932  1.0000
  C   C619      1.0  0.36270  0.97380  0.09932  1.0000
  C   C620      1.0  0.13730  0.02620  0.59932  1.0000
  C   C621      1.0  0.27620  0.88730  0.65068  1.0000
  C   C622      1.0  0.22380  0.11270  0.15068  1.0000
  C   C623      1.0  0.13730  0.97380  0.40068  1.0000
  C   C624      1.0  0.36270  0.02620  0.90068  1.0000
  C   C625      1.0  0.27620  0.61270  0.65068  1.0000
  C   C626      1.0  0.22380  0.38730  0.15068  1.0000
  C   C627      1.0  0.13730  0.52620  0.40068  1.0000
  C   C628      1.0  0.36270  0.47380  0.90068  1.0000
  C   C629      1.0  0.22380  0.61270  0.84932  1.0000
  C   C630      1.0  0.27620  0.38730  0.34932  1.0000
  C   C631      1.0  0.36270  0.52620  0.09932  1.0000
  C   C632      1.0  0.13730  0.47380  0.59932  1.0000
  C   C633      1.0  0.77620  0.11270  0.15068  1.0000
  C   C634      1.0  0.72380  0.88730  0.65068  1.0000
  C   C635      1.0  0.63730  0.02620  0.90068  1.0000
  C   C636      1.0  0.86270  0.97380  0.40068  1.0000
  C   C637      1.0  0.72380  0.11270  0.34932  1.0000
  C   C638      1.0  0.77620  0.88730  0.84932  1.0000
  C   C639      1.0  0.86270  0.02620  0.59932  1.0000
  C   C640      1.0  0.63730  0.97380  0.09932  1.0000
  C   C641      1.0  0.72340  0.42290  0.36918  1.0000
  C   C642      1.0  0.77660  0.57710  0.86918  1.0000
  C   C643      1.0  0.82710  0.47340  0.61918  1.0000
  C   C644      1.0  0.67290  0.52660  0.11918  1.0000
  C   C645      1.0  0.77660  0.42290  0.13082  1.0000
  C   C646      1.0  0.72340  0.57710  0.63082  1.0000
  C   C647      1.0  0.67290  0.47340  0.88082  1.0000
  C   C648      1.0  0.82710  0.52660  0.38082  1.0000
  C   C649      1.0  0.22340  0.92290  0.86918  1.0000
  C   C650      1.0  0.27660  0.07710  0.36918  1.0000
  C   C651      1.0  0.32710  0.97340  0.11918  1.0000
  C   C652      1.0  0.17290  0.02660  0.61918  1.0000
  C   C653      1.0  0.27660  0.92290  0.63082  1.0000
  C   C654      1.0  0.22340  0.07710  0.13082  1.0000
  C   C655      1.0  0.17290  0.97340  0.38082  1.0000
  C   C656      1.0  0.32710  0.02660  0.88082  1.0000
  C   C657      1.0  0.27660  0.57710  0.63082  1.0000
  C   C658      1.0  0.22340  0.42290  0.13082  1.0000
  C   C659      1.0  0.17290  0.52660  0.38082  1.0000
  C   C660      1.0  0.32710  0.47340  0.88082  1.0000
  C   C661      1.0  0.22340  0.57710  0.86918  1.0000
  C   C662      1.0  0.27660  0.42290  0.36918  1.0000
  C   C663      1.0  0.32710  0.52660  0.11918  1.0000
  C   C664      1.0  0.17290  0.47340  0.61918  1.0000
  C   C665      1.0  0.77660  0.07710  0.13082  1.0000
  C   C666      1.0  0.72340  0.92290  0.63082  1.0000
  C   C667      1.0  0.67290  0.02660  0.88082  1.0000
  C   C668      1.0  0.82710  0.97340  0.38082  1.0000
  C   C669      1.0  0.72340  0.07710  0.36918  1.0000
  C   C670      1.0  0.77660  0.92290  0.86918  1.0000
  C   C671      1.0  0.82710  0.02660  0.61918  1.0000
  C   C672      1.0  0.67290  0.97340  0.11918  1.0000
  C   C673      1.0  0.72570  0.41270  0.39373  1.0000
  C   C674      1.0  0.77430  0.58730  0.89373  1.0000
  C   C675      1.0  0.83730  0.47570  0.64373  1.0000
  C   C676      1.0  0.66270  0.52430  0.14373  1.0000
  C   C677      1.0  0.77430  0.41270  0.10627  1.0000
  C   C678      1.0  0.72570  0.58730  0.60627  1.0000
  C   C679      1.0  0.66270  0.47570  0.85627  1.0000
  C   C680      1.0  0.83730  0.52430  0.35627  1.0000
  C   C681      1.0  0.22570  0.91270  0.89373  1.0000
  C   C682      1.0  0.27430  0.08730  0.39373  1.0000
  C   C683      1.0  0.33730  0.97570  0.14373  1.0000
  C   C684      1.0  0.16270  0.02430  0.64373  1.0000
  C   C685      1.0  0.27430  0.91270  0.60627  1.0000
  C   C686      1.0  0.22570  0.08730  0.10627  1.0000
  C   C687      1.0  0.16270  0.97570  0.35627  1.0000
  C   C688      1.0  0.33730  0.02430  0.85627  1.0000
  C   C689      1.0  0.27430  0.58730  0.60627  1.0000
  C   C690      1.0  0.22570  0.41270  0.10627  1.0000
  C   C691      1.0  0.16270  0.52430  0.35627  1.0000
  C   C692      1.0  0.33730  0.47570  0.85627  1.0000
  C   C693      1.0  0.22570  0.58730  0.89373  1.0000
  C   C694      1.0  0.27430  0.41270  0.39373  1.0000
  C   C695      1.0  0.33730  0.52430  0.14373  1.0000
  C   C696      1.0  0.16270  0.47570  0.64373  1.0000
  C   C697      1.0  0.77430  0.08730  0.10627  1.0000
  C   C698      1.0  0.72570  0.91270  0.60627  1.0000
  C   C699      1.0  0.66270  0.02430  0.85627  1.0000
  C   C700      1.0  0.83730  0.97570  0.35627  1.0000
  C   C701      1.0  0.72570  0.08730  0.39373  1.0000
  C   C702      1.0  0.77430  0.91270  0.89373  1.0000
  C   C703      1.0  0.83730  0.02430  0.64373  1.0000
  C   C704      1.0  0.66270  0.97570  0.14373  1.0000
  H   H225      1.0  0.72688  0.43626  0.40629  1.0000
  H   H226      1.0  0.77312  0.56374  0.90629  1.0000
  H   H227      1.0  0.81374  0.47688  0.65629  1.0000
  H   H228      1.0  0.68626  0.52312  0.15629  1.0000
  H   H229      1.0  0.77312  0.43626  0.09371  1.0000
  H   H230      1.0  0.72688  0.56374  0.59371  1.0000
  H   H231      1.0  0.68626  0.47688  0.84371  1.0000
  H   H232      1.0  0.81374  0.52312  0.34371  1.0000
  H   H233      1.0  0.22688  0.93626  0.90629  1.0000
  H   H234      1.0  0.27312  0.06374  0.40629  1.0000
  H   H235      1.0  0.31374  0.97688  0.15629  1.0000
  H   H236      1.0  0.18626  0.02312  0.65629  1.0000
  H   H237      1.0  0.27312  0.93626  0.59371  1.0000
  H   H238      1.0  0.22688  0.06374  0.09371  1.0000
  H   H239      1.0  0.18626  0.97688  0.34371  1.0000
  H   H240      1.0  0.31374  0.02312  0.84371  1.0000
  H   H241      1.0  0.27312  0.56374  0.59371  1.0000
  H   H242      1.0  0.22688  0.43626  0.09371  1.0000
  H   H243      1.0  0.18626  0.52312  0.34371  1.0000
  H   H244      1.0  0.31374  0.47688  0.84371  1.0000
  H   H245      1.0  0.22688  0.56374  0.90629  1.0000
  H   H246      1.0  0.27312  0.43626  0.40629  1.0000
  H   H247      1.0  0.31374  0.52312  0.15629  1.0000
  H   H248      1.0  0.18626  0.47688  0.65629  1.0000
  H   H249      1.0  0.77312  0.06374  0.09371  1.0000
  H   H250      1.0  0.72688  0.93626  0.59371  1.0000
  H   H251      1.0  0.68626  0.02312  0.84371  1.0000
  H   H252      1.0  0.81374  0.97688  0.34371  1.0000
  H   H253      1.0  0.72688  0.06374  0.40629  1.0000
  H   H254      1.0  0.77312  0.93626  0.90629  1.0000
  H   H255      1.0  0.81374  0.02312  0.65629  1.0000
  H   H256      1.0  0.68626  0.97688  0.15629  1.0000
  C   C705      1.0  0.72630  0.36720  0.40084  1.0000
  C   C706      1.0  0.77370  0.63280  0.90084  1.0000
  C   C707      1.0  0.88280  0.47630  0.65084  1.0000
  C   C708      1.0  0.61720  0.52370  0.15084  1.0000
  C   C709      1.0  0.77370  0.36720  0.09916  1.0000
  C   C710      1.0  0.72630  0.63280  0.59916  1.0000
  C   C711      1.0  0.61720  0.47630  0.84916  1.0000
  C   C712      1.0  0.88280  0.52370  0.34916  1.0000
  C   C713      1.0  0.22630  0.86720  0.90084  1.0000
  C   C714      1.0  0.27370  0.13280  0.40084  1.0000
  C   C715      1.0  0.38280  0.97630  0.15084  1.0000
  C   C716      1.0  0.11720  0.02370  0.65084  1.0000
  C   C717      1.0  0.27370  0.86720  0.59916  1.0000
  C   C718      1.0  0.22630  0.13280  0.09916  1.0000
  C   C719      1.0  0.11720  0.97630  0.34916  1.0000
  C   C720      1.0  0.38280  0.02370  0.84916  1.0000
  C   C721      1.0  0.27370  0.63280  0.59916  1.0000
  C   C722      1.0  0.22630  0.36720  0.09916  1.0000
  C   C723      1.0  0.11720  0.52370  0.34916  1.0000
  C   C724      1.0  0.38280  0.47630  0.84916  1.0000
  C   C725      1.0  0.22630  0.63280  0.90084  1.0000
  C   C726      1.0  0.27370  0.36720  0.40084  1.0000
  C   C727      1.0  0.38280  0.52370  0.15084  1.0000
  C   C728      1.0  0.11720  0.47630  0.65084  1.0000
  C   C729      1.0  0.77370  0.13280  0.09916  1.0000
  C   C730      1.0  0.72630  0.86720  0.59916  1.0000
  C   C731      1.0  0.61720  0.02370  0.84916  1.0000
  C   C732      1.0  0.88280  0.97630  0.34916  1.0000
  C   C733      1.0  0.72630  0.13280  0.40084  1.0000
  C   C734      1.0  0.77370  0.86720  0.90084  1.0000
  C   C735      1.0  0.88280  0.02370  0.65084  1.0000
  C   C736      1.0  0.61720  0.97630  0.15084  1.0000
  C   C737      1.0  0.72770  0.33120  0.38195  1.0000
  C   C738      1.0  0.77230  0.66880  0.88195  1.0000
  C   C739      1.0  0.91880  0.47770  0.63195  1.0000
  C   C740      1.0  0.58120  0.52230  0.13195  1.0000
  C   C741      1.0  0.77230  0.33120  0.11805  1.0000
  C   C742      1.0  0.72770  0.66880  0.61805  1.0000
  C   C743      1.0  0.58120  0.47770  0.86805  1.0000
  C   C744      1.0  0.91880  0.52230  0.36805  1.0000
  C   C745      1.0  0.22770  0.83120  0.88195  1.0000
  C   C746      1.0  0.27230  0.16880  0.38195  1.0000
  C   C747      1.0  0.41880  0.97770  0.13195  1.0000
  C   C748      1.0  0.08120  0.02230  0.63195  1.0000
  C   C749      1.0  0.27230  0.83120  0.61805  1.0000
  C   C750      1.0  0.22770  0.16880  0.11805  1.0000
  C   C751      1.0  0.08120  0.97770  0.36805  1.0000
  C   C752      1.0  0.41880  0.02230  0.86805  1.0000
  C   C753      1.0  0.27230  0.66880  0.61805  1.0000
  C   C754      1.0  0.22770  0.33120  0.11805  1.0000
  C   C755      1.0  0.08120  0.52230  0.36805  1.0000
  C   C756      1.0  0.41880  0.47770  0.86805  1.0000
  C   C757      1.0  0.22770  0.66880  0.88195  1.0000
  C   C758      1.0  0.27230  0.33120  0.38195  1.0000
  C   C759      1.0  0.41880  0.52230  0.13195  1.0000
  C   C760      1.0  0.08120  0.47770  0.63195  1.0000
  C   C761      1.0  0.77230  0.16880  0.11805  1.0000
  C   C762      1.0  0.72770  0.83120  0.61805  1.0000
  C   C763      1.0  0.58120  0.02230  0.86805  1.0000
  C   C764      1.0  0.91880  0.97770  0.36805  1.0000
  C   C765      1.0  0.72770  0.16880  0.38195  1.0000
  C   C766      1.0  0.77230  0.83120  0.88195  1.0000
  C   C767      1.0  0.91880  0.02230  0.63195  1.0000
  C   C768      1.0  0.58120  0.97770  0.13195  1.0000
  O   O241      1.0  0.75040  0.25000  0.60020  1.0000
  O   O242      1.0  0.74960  0.75000  0.10020  1.0000
  O   O243      1.0  0.00000  0.50040  0.85020  1.0000
  O   O244      1.0  0.50000  0.49960  0.35020  1.0000
  O   O245      1.0  0.74960  0.25000  0.89980  1.0000
  O   O246      1.0  0.75040  0.75000  0.39980  1.0000
  O   O247      1.0  0.50000  0.50040  0.64980  1.0000
  O   O248      1.0  0.00000  0.49960  0.14980  1.0000
  O   O249      1.0  0.25040  0.75000  0.10020  1.0000
  O   O250      1.0  0.24960  0.25000  0.60020  1.0000
  O   O251      1.0  0.50000  0.00040  0.35020  1.0000
  O   O252      1.0  0.00000  0.99960  0.85020  1.0000
  O   O253      1.0  0.24960  0.75000  0.39980  1.0000
  O   O254      1.0  0.25040  0.25000  0.89980  1.0000
  O   O255      1.0  0.00000  0.00040  0.14980  1.0000
  O   O256      1.0  0.50000  0.99960  0.64980  1.0000
  O   O257      1.0  0.83850  0.50000  0.50000  1.0000
  O   O258      1.0  0.66150  0.50000  0.00000  1.0000
  O   O259      1.0  0.75000  0.58850  0.75000  1.0000
  O   O260      1.0  0.75000  0.41150  0.25000  1.0000
  O   O261      1.0  0.33850  0.00000  0.00000  1.0000
  O   O262      1.0  0.16150  0.00000  0.50000  1.0000
  O   O263      1.0  0.25000  0.08850  0.25000  1.0000
  O   O264      1.0  0.25000  0.91150  0.75000  1.0000
  O   O265      1.0  0.16150  0.50000  0.50000  1.0000
  O   O266      1.0  0.33850  0.50000  0.00000  1.0000
  O   O267      1.0  0.25000  0.41150  0.25000  1.0000
  O   O268      1.0  0.25000  0.58850  0.75000  1.0000
  O   O269      1.0  0.66150  0.00000  0.00000  1.0000
  O   O270      1.0  0.83850  0.00000  0.50000  1.0000
  O   O271      1.0  0.75000  0.91150  0.75000  1.0000
  O   O272      1.0  0.75000  0.08850  0.25000  1.0000
