data_image0
_chemical_formula_structural       Zn12N48C24H24C48H48C48H48
_chemical_formula_sum              "Zn12 N48 C120 H120"
_cell_length_a       16.8303
_cell_length_b       16.8303
_cell_length_c       16.8303
_cell_angle_alpha    90
_cell_angle_beta     90
_cell_angle_gamma    90

_space_group_name_H-M_alt    "P 1"
_space_group_IT_number       1

loop_
  _space_group_symop_operation_xyz
  'x, y, z'

loop_
  _atom_site_type_symbol
  _atom_site_label
  _atom_site_symmetry_multiplicity
  _atom_site_fract_x
  _atom_site_fract_y
  _atom_site_fract_z
  _atom_site_occupancy
  Zn  Zn1       1.0  0.50000  0.25000  0.00000  1.0000
  Zn  Zn2       1.0  0.25000  0.50000  0.00000  1.0000
  Zn  Zn3       1.0  0.50000  0.75000  0.00000  1.0000
  Zn  Zn4       1.0  0.75000  0.50000  0.00000  1.0000
  Zn  Zn5       1.0  0.50000  0.00000  0.75000  1.0000
  Zn  Zn6       1.0  0.50000  0.00000  0.25000  1.0000
  Zn  Zn7       1.0  0.00000  0.75000  0.50000  1.0000
  Zn  Zn8       1.0  0.00000  0.50000  0.25000  1.0000
  Zn  Zn9       1.0  0.25000  0.00000  0.50000  1.0000
  Zn  Zn10      1.0  0.75000  0.00000  0.50000  1.0000
  Zn  Zn11      1.0  0.00000  0.50000  0.75000  1.0000
  Zn  Zn12      1.0  0.00000  0.25000  0.50000  1.0000
  N   N1        1.0  0.53668  0.18295  0.08924  1.0000
  N   N2        1.0  0.18295  0.46332  0.91076  1.0000
  N   N3        1.0  0.46332  0.81705  0.08924  1.0000
  N   N4        1.0  0.81705  0.53668  0.91076  1.0000
  N   N5        1.0  0.46332  0.08924  0.81705  1.0000
  N   N6        1.0  0.53668  0.81705  0.91076  1.0000
  N   N7        1.0  0.46332  0.91076  0.18295  1.0000
  N   N8        1.0  0.91076  0.81705  0.53668  1.0000
  N   N9        1.0  0.46332  0.18295  0.91076  1.0000
  N   N10       1.0  0.08924  0.81705  0.46332  1.0000
  N   N11       1.0  0.08924  0.53668  0.18295  1.0000
  N   N12       1.0  0.18295  0.08924  0.53668  1.0000
  N   N13       1.0  0.81705  0.91076  0.53668  1.0000
  N   N14       1.0  0.08924  0.46332  0.81705  1.0000
  N   N15       1.0  0.81705  0.08924  0.46332  1.0000
  N   N16       1.0  0.91076  0.46332  0.18295  1.0000
  N   N17       1.0  0.91076  0.53668  0.81705  1.0000
  N   N18       1.0  0.18295  0.91076  0.46332  1.0000
  N   N19       1.0  0.81705  0.46332  0.08924  1.0000
  N   N20       1.0  0.18295  0.53668  0.08924  1.0000
  N   N21       1.0  0.53668  0.91076  0.81705  1.0000
  N   N22       1.0  0.53668  0.08924  0.18295  1.0000
  N   N23       1.0  0.91076  0.18295  0.46332  1.0000
  N   N24       1.0  0.08924  0.18295  0.53668  1.0000
  N   N25       1.0  0.03668  0.68295  0.58924  1.0000
  N   N26       1.0  0.68295  0.96332  0.41076  1.0000
  N   N27       1.0  0.96332  0.31705  0.58924  1.0000
  N   N28       1.0  0.31705  0.03668  0.41076  1.0000
  N   N29       1.0  0.96332  0.58924  0.31705  1.0000
  N   N30       1.0  0.03668  0.31705  0.41076  1.0000
  N   N31       1.0  0.96332  0.41076  0.68295  1.0000
  N   N32       1.0  0.41076  0.31705  0.03668  1.0000
  N   N33       1.0  0.96332  0.68295  0.41076  1.0000
  N   N34       1.0  0.58924  0.31705  0.96332  1.0000
  N   N35       1.0  0.58924  0.03668  0.68295  1.0000
  N   N36       1.0  0.68295  0.58924  0.03668  1.0000
  N   N37       1.0  0.31705  0.41076  0.03668  1.0000
  N   N38       1.0  0.58924  0.96332  0.31705  1.0000
  N   N39       1.0  0.31705  0.58924  0.96332  1.0000
  N   N40       1.0  0.41076  0.96332  0.68295  1.0000
  N   N41       1.0  0.41076  0.03668  0.31705  1.0000
  N   N42       1.0  0.68295  0.41076  0.96332  1.0000
  N   N43       1.0  0.31705  0.96332  0.58924  1.0000
  N   N44       1.0  0.68295  0.03668  0.58924  1.0000
  N   N45       1.0  0.03668  0.41076  0.31705  1.0000
  N   N46       1.0  0.03668  0.58924  0.68295  1.0000
  N   N47       1.0  0.41076  0.68295  0.96332  1.0000
  N   N48       1.0  0.58924  0.68295  0.03668  1.0000
  C   C1        1.0  0.50390  0.12063  0.12063  1.0000
  C   C2        1.0  0.12063  0.49610  0.87937  1.0000
  C   C3        1.0  0.49610  0.87937  0.12063  1.0000
  C   C4        1.0  0.87937  0.50390  0.87937  1.0000
  C   C5        1.0  0.49610  0.12063  0.87937  1.0000
  C   C6        1.0  0.50390  0.87937  0.87937  1.0000
  C   C7        1.0  0.87937  0.87937  0.50390  1.0000
  C   C8        1.0  0.12063  0.87937  0.49610  1.0000
  C   C9        1.0  0.12063  0.50390  0.12063  1.0000
  C   C10       1.0  0.12063  0.12063  0.50390  1.0000
  C   C11       1.0  0.87937  0.12063  0.49610  1.0000
  C   C12       1.0  0.87937  0.49610  0.12063  1.0000
  C   C13       1.0  0.00390  0.62063  0.62063  1.0000
  C   C14       1.0  0.62063  0.99610  0.37937  1.0000
  C   C15       1.0  0.99610  0.37937  0.62063  1.0000
  C   C16       1.0  0.37937  0.00390  0.37937  1.0000
  C   C17       1.0  0.99610  0.62063  0.37937  1.0000
  C   C18       1.0  0.00390  0.37937  0.37937  1.0000
  C   C19       1.0  0.37937  0.37937  0.00390  1.0000
  C   C20       1.0  0.62063  0.37937  0.99610  1.0000
  C   C21       1.0  0.62063  0.00390  0.62063  1.0000
  C   C22       1.0  0.62063  0.62063  0.00390  1.0000
  C   C23       1.0  0.37937  0.62063  0.99610  1.0000
  C   C24       1.0  0.37937  0.99610  0.62063  1.0000
  H   H1        1.0  0.45690  0.09850  0.09850  1.0000
  H   H2        1.0  0.09850  0.54310  0.90150  1.0000
  H   H3        1.0  0.54310  0.90150  0.09850  1.0000
  H   H4        1.0  0.90150  0.45690  0.90150  1.0000
  H   H5        1.0  0.54310  0.09850  0.90150  1.0000
  H   H6        1.0  0.45690  0.90150  0.90150  1.0000
  H   H7        1.0  0.90150  0.90150  0.45690  1.0000
  H   H8        1.0  0.09850  0.90150  0.54310  1.0000
  H   H9        1.0  0.09850  0.45690  0.09850  1.0000
  H   H10       1.0  0.09850  0.09850  0.45690  1.0000
  H   H11       1.0  0.90150  0.09850  0.54310  1.0000
  H   H12       1.0  0.90150  0.54310  0.09850  1.0000
  H   H13       1.0  0.95690  0.59850  0.59850  1.0000
  H   H14       1.0  0.59850  0.04310  0.40150  1.0000
  H   H15       1.0  0.04310  0.40150  0.59850  1.0000
  H   H16       1.0  0.40150  0.95690  0.40150  1.0000
  H   H17       1.0  0.04310  0.59850  0.40150  1.0000
  H   H18       1.0  0.95690  0.40150  0.40150  1.0000
  H   H19       1.0  0.40150  0.40150  0.95690  1.0000
  H   H20       1.0  0.59850  0.40150  0.04310  1.0000
  H   H21       1.0  0.59850  0.95690  0.59850  1.0000
  H   H22       1.0  0.59850  0.59850  0.95690  1.0000
  H   H23       1.0  0.40150  0.59850  0.04310  1.0000
  H   H24       1.0  0.40150  0.04310  0.59850  1.0000
  C   C25       1.0  0.60830  0.18250  0.12630  0.6300
  C   C26       1.0  0.18250  0.39170  0.87370  0.6300
  C   C27       1.0  0.39170  0.81750  0.12630  0.6300
  C   C28       1.0  0.81750  0.60830  0.87370  0.6300
  C   C29       1.0  0.39170  0.12630  0.81750  0.6300
  C   C30       1.0  0.60830  0.81750  0.87370  0.6300
  C   C31       1.0  0.39170  0.87370  0.18250  0.6300
  C   C32       1.0  0.87370  0.81750  0.60830  0.6300
  C   C33       1.0  0.39170  0.18250  0.87370  0.6300
  C   C34       1.0  0.12630  0.81750  0.39170  0.6300
  C   C35       1.0  0.12630  0.60830  0.18250  0.6300
  C   C36       1.0  0.18250  0.12630  0.60830  0.6300
  C   C37       1.0  0.81750  0.87370  0.60830  0.6300
  C   C38       1.0  0.12630  0.39170  0.81750  0.6300
  C   C39       1.0  0.81750  0.12630  0.39170  0.6300
  C   C40       1.0  0.87370  0.39170  0.18250  0.6300
  C   C41       1.0  0.87370  0.60830  0.81750  0.6300
  C   C42       1.0  0.18250  0.87370  0.39170  0.6300
  C   C43       1.0  0.81750  0.39170  0.12630  0.6300
  C   C44       1.0  0.18250  0.60830  0.12630  0.6300
  C   C45       1.0  0.60830  0.87370  0.81750  0.6300
  C   C46       1.0  0.60830  0.12630  0.18250  0.6300
  C   C47       1.0  0.87370  0.18250  0.39170  0.6300
  C   C48       1.0  0.12630  0.18250  0.60830  0.6300
  C   C49       1.0  0.10830  0.68250  0.62630  0.6300
  C   C50       1.0  0.68250  0.89170  0.37370  0.6300
  C   C51       1.0  0.89170  0.31750  0.62630  0.6300
  C   C52       1.0  0.31750  0.10830  0.37370  0.6300
  C   C53       1.0  0.89170  0.62630  0.31750  0.6300
  C   C54       1.0  0.10830  0.31750  0.37370  0.6300
  C   C55       1.0  0.89170  0.37370  0.68250  0.6300
  C   C56       1.0  0.37370  0.31750  0.10830  0.6300
  C   C57       1.0  0.89170  0.68250  0.37370  0.6300
  C   C58       1.0  0.62630  0.31750  0.89170  0.6300
  C   C59       1.0  0.62630  0.10830  0.68250  0.6300
  C   C60       1.0  0.68250  0.62630  0.10830  0.6300
  C   C61       1.0  0.31750  0.37370  0.10830  0.6300
  C   C62       1.0  0.62630  0.89170  0.31750  0.6300
  C   C63       1.0  0.31750  0.62630  0.89170  0.6300
  C   C64       1.0  0.37370  0.89170  0.68250  0.6300
  C   C65       1.0  0.37370  0.10830  0.31750  0.6300
  C   C66       1.0  0.68250  0.37370  0.89170  0.6300
  C   C67       1.0  0.31750  0.89170  0.62630  0.6300
  C   C68       1.0  0.68250  0.10830  0.62630  0.6300
  C   C69       1.0  0.10830  0.37370  0.31750  0.6300
  C   C70       1.0  0.10830  0.62630  0.68250  0.6300
  C   C71       1.0  0.37370  0.68250  0.89170  0.6300
  C   C72       1.0  0.62630  0.68250  0.10830  0.6300
  H   H25       1.0  0.65160  0.21670  0.11430  0.6300
  H   H26       1.0  0.21670  0.34840  0.88570  0.6300
  H   H27       1.0  0.34840  0.78330  0.11430  0.6300
  H   H28       1.0  0.78330  0.65160  0.88570  0.6300
  H   H29       1.0  0.34840  0.11430  0.78330  0.6300
  H   H30       1.0  0.65160  0.78330  0.88570  0.6300
  H   H31       1.0  0.34840  0.88570  0.21670  0.6300
  H   H32       1.0  0.88570  0.78330  0.65160  0.6300
  H   H33       1.0  0.34840  0.21670  0.88570  0.6300
  H   H34       1.0  0.11430  0.78330  0.34840  0.6300
  H   H35       1.0  0.11430  0.65160  0.21670  0.6300
  H   H36       1.0  0.21670  0.11430  0.65160  0.6300
  H   H37       1.0  0.78330  0.88570  0.65160  0.6300
  H   H38       1.0  0.11430  0.34840  0.78330  0.6300
  H   H39       1.0  0.78330  0.11430  0.34840  0.6300
  H   H40       1.0  0.88570  0.34840  0.21670  0.6300
  H   H41       1.0  0.88570  0.65160  0.78330  0.6300
  H   H42       1.0  0.21670  0.88570  0.34840  0.6300
  H   H43       1.0  0.78330  0.34840  0.11430  0.6300
  H   H44       1.0  0.21670  0.65160  0.11430  0.6300
  H   H45       1.0  0.65160  0.88570  0.78330  0.6300
  H   H46       1.0  0.65160  0.11430  0.21670  0.6300
  H   H47       1.0  0.88570  0.21670  0.34840  0.6300
  H   H48       1.0  0.11430  0.21670  0.65160  0.6300
  H   H49       1.0  0.15160  0.71670  0.61430  0.6300
  H   H50       1.0  0.71670  0.84840  0.38570  0.6300
  H   H51       1.0  0.84840  0.28330  0.61430  0.6300
  H   H52       1.0  0.28330  0.15160  0.38570  0.6300
  H   H53       1.0  0.84840  0.61430  0.28330  0.6300
  H   H54       1.0  0.15160  0.28330  0.38570  0.6300
  H   H55       1.0  0.84840  0.38570  0.71670  0.6300
  H   H56       1.0  0.38570  0.28330  0.15160  0.6300
  H   H57       1.0  0.84840  0.71670  0.38570  0.6300
  H   H58       1.0  0.61430  0.28330  0.84840  0.6300
  H   H59       1.0  0.61430  0.15160  0.71670  0.6300
  H   H60       1.0  0.71670  0.61430  0.15160  0.6300
  H   H61       1.0  0.28330  0.38570  0.15160  0.6300
  H   H62       1.0  0.61430  0.84840  0.28330  0.6300
  H   H63       1.0  0.28330  0.61430  0.84840  0.6300
  H   H64       1.0  0.38570  0.84840  0.71670  0.6300
  H   H65       1.0  0.38570  0.15160  0.28330  0.6300
  H   H66       1.0  0.71670  0.38570  0.84840  0.6300
  H   H67       1.0  0.28330  0.84840  0.61430  0.6300
  H   H68       1.0  0.71670  0.15160  0.61430  0.6300
  H   H69       1.0  0.15160  0.38570  0.28330  0.6300
  H   H70       1.0  0.15160  0.61430  0.71670  0.6300
  H   H71       1.0  0.38570  0.71670  0.84840  0.6300
  H   H72       1.0  0.61430  0.71670  0.15160  0.6300
  C   C73       1.0  0.57630  0.21290  0.15360  0.3700
  C   C74       1.0  0.21290  0.42370  0.84640  0.3700
  C   C75       1.0  0.42370  0.78710  0.15360  0.3700
  C   C76       1.0  0.78710  0.57630  0.84640  0.3700
  C   C77       1.0  0.42370  0.15360  0.78710  0.3700
  C   C78       1.0  0.57630  0.78710  0.84640  0.3700
  C   C79       1.0  0.42370  0.84640  0.21290  0.3700
  C   C80       1.0  0.84640  0.78710  0.57630  0.3700
  C   C81       1.0  0.42370  0.21290  0.84640  0.3700
  C   C82       1.0  0.15360  0.78710  0.42370  0.3700
  C   C83       1.0  0.15360  0.57630  0.21290  0.3700
  C   C84       1.0  0.21290  0.15360  0.57630  0.3700
  C   C85       1.0  0.78710  0.84640  0.57630  0.3700
  C   C86       1.0  0.15360  0.42370  0.78710  0.3700
  C   C87       1.0  0.78710  0.15360  0.42370  0.3700
  C   C88       1.0  0.84640  0.42370  0.21290  0.3700
  C   C89       1.0  0.84640  0.57630  0.78710  0.3700
  C   C90       1.0  0.21290  0.84640  0.42370  0.3700
  C   C91       1.0  0.78710  0.42370  0.15360  0.3700
  C   C92       1.0  0.21290  0.57630  0.15360  0.3700
  C   C93       1.0  0.57630  0.84640  0.78710  0.3700
  C   C94       1.0  0.57630  0.15360  0.21290  0.3700
  C   C95       1.0  0.84640  0.21290  0.42370  0.3700
  C   C96       1.0  0.15360  0.21290  0.57630  0.3700
  C   C97       1.0  0.07630  0.71290  0.65360  0.3700
  C   C98       1.0  0.71290  0.92370  0.34640  0.3700
  C   C99       1.0  0.92370  0.28710  0.65360  0.3700
  C   C100      1.0  0.28710  0.07630  0.34640  0.3700
  C   C101      1.0  0.92370  0.65360  0.28710  0.3700
  C   C102      1.0  0.07630  0.28710  0.34640  0.3700
  C   C103      1.0  0.92370  0.34640  0.71290  0.3700
  C   C104      1.0  0.34640  0.28710  0.07630  0.3700
  C   C105      1.0  0.92370  0.71290  0.34640  0.3700
  C   C106      1.0  0.65360  0.28710  0.92370  0.3700
  C   C107      1.0  0.65360  0.07630  0.71290  0.3700
  C   C108      1.0  0.71290  0.65360  0.07630  0.3700
  C   C109      1.0  0.28710  0.34640  0.07630  0.3700
  C   C110      1.0  0.65360  0.92370  0.28710  0.3700
  C   C111      1.0  0.28710  0.65360  0.92370  0.3700
  C   C112      1.0  0.34640  0.92370  0.71290  0.3700
  C   C113      1.0  0.34640  0.07630  0.28710  0.3700
  C   C114      1.0  0.71290  0.34640  0.92370  0.3700
  C   C115      1.0  0.28710  0.92370  0.65360  0.3700
  C   C116      1.0  0.71290  0.07630  0.65360  0.3700
  C   C117      1.0  0.07630  0.34640  0.28710  0.3700
  C   C118      1.0  0.07630  0.65360  0.71290  0.3700
  C   C119      1.0  0.34640  0.71290  0.92370  0.3700
  C   C120      1.0  0.65360  0.71290  0.07630  0.3700
  H   H73       1.0  0.59950  0.26420  0.15760  0.3700
  H   H74       1.0  0.26420  0.40050  0.84240  0.3700
  H   H75       1.0  0.40050  0.73580  0.15760  0.3700
  H   H76       1.0  0.73580  0.59950  0.84240  0.3700
  H   H77       1.0  0.40050  0.15760  0.73580  0.3700
  H   H78       1.0  0.59950  0.73580  0.84240  0.3700
  H   H79       1.0  0.40050  0.84240  0.26420  0.3700
  H   H80       1.0  0.84240  0.73580  0.59950  0.3700
  H   H81       1.0  0.40050  0.26420  0.84240  0.3700
  H   H82       1.0  0.15760  0.73580  0.40050  0.3700
  H   H83       1.0  0.15760  0.59950  0.26420  0.3700
  H   H84       1.0  0.26420  0.15760  0.59950  0.3700
  H   H85       1.0  0.73580  0.84240  0.59950  0.3700
  H   H86       1.0  0.15760  0.40050  0.73580  0.3700
  H   H87       1.0  0.73580  0.15760  0.40050  0.3700
  H   H88       1.0  0.84240  0.40050  0.26420  0.3700
  H   H89       1.0  0.84240  0.59950  0.73580  0.3700
  H   H90       1.0  0.26420  0.84240  0.40050  0.3700
  H   H91       1.0  0.73580  0.40050  0.15760  0.3700
  H   H92       1.0  0.26420  0.59950  0.15760  0.3700
  H   H93       1.0  0.59950  0.84240  0.73580  0.3700
  H   H94       1.0  0.59950  0.15760  0.26420  0.3700
  H   H95       1.0  0.84240  0.26420  0.40050  0.3700
  H   H96       1.0  0.15760  0.26420  0.59950  0.3700
  H   H97       1.0  0.09950  0.76420  0.65760  0.3700
  H   H98       1.0  0.76420  0.90050  0.34240  0.3700
  H   H99       1.0  0.90050  0.23580  0.65760  0.3700
  H   H100      1.0  0.23580  0.09950  0.34240  0.3700
  H   H101      1.0  0.90050  0.65760  0.23580  0.3700
  H   H102      1.0  0.09950  0.23580  0.34240  0.3700
  H   H103      1.0  0.90050  0.34240  0.76420  0.3700
  H   H104      1.0  0.34240  0.23580  0.09950  0.3700
  H   H105      1.0  0.90050  0.76420  0.34240  0.3700
  H   H106      1.0  0.65760  0.23580  0.90050  0.3700
  H   H107      1.0  0.65760  0.09950  0.76420  0.3700
  H   H108      1.0  0.76420  0.65760  0.09950  0.3700
  H   H109      1.0  0.23580  0.34240  0.09950  0.3700
  H   H110      1.0  0.65760  0.90050  0.23580  0.3700
  H   H111      1.0  0.23580  0.65760  0.90050  0.3700
  H   H112      1.0  0.34240  0.90050  0.76420  0.3700
  H   H113      1.0  0.34240  0.09950  0.23580  0.3700
  H   H114      1.0  0.76420  0.34240  0.90050  0.3700
  H   H115      1.0  0.23580  0.90050  0.65760  0.3700
  H   H116      1.0  0.76420  0.09950  0.65760  0.3700
  H   H117      1.0  0.09950  0.34240  0.23580  0.3700
  H   H118      1.0  0.09950  0.65760  0.76420  0.3700
  H   H119      1.0  0.34240  0.76420  0.90050  0.3700
  H   H120      1.0  0.65760  0.76420  0.09950  0.3700
