data_image0
_chemical_formula_structural       Fe8Cl8P16F96O8N48C236H184
_chemical_formula_sum              "Fe8 Cl8 P16 F96 O8 N48 C236 H184"
_cell_length_a       20.0016
_cell_length_b       18.5063
_cell_length_c       18.5977
_cell_angle_alpha    90
_cell_angle_beta     105.981
_cell_angle_gamma    90

_space_group_name_H-M_alt    "P 1"
_space_group_IT_number       1

loop_
  _space_group_symop_operation_xyz
  'x, y, z'

loop_
  _atom_site_type_symbol
  _atom_site_label
  _atom_site_symmetry_multiplicity
  _atom_site_fract_x
  _atom_site_fract_y
  _atom_site_fract_z
  _atom_site_occupancy
  Fe  Fe1       1.0  0.15140  0.69794  0.59833  1.0000
  Fe  Fe2       1.0  0.84860  0.30206  0.40167  1.0000
  Fe  Fe3       1.0  0.65140  0.19794  0.59833  1.0000
  Fe  Fe4       1.0  0.34860  0.80206  0.40167  1.0000
  Fe  Fe5       1.0  0.15140  0.30206  0.09833  1.0000
  Fe  Fe6       1.0  0.84860  0.69794  0.90167  1.0000
  Fe  Fe7       1.0  0.65140  0.80206  0.09833  1.0000
  Fe  Fe8       1.0  0.34860  0.19794  0.90167  1.0000
  Cl  Cl1       1.0  0.42425  0.56585  0.73284  1.0000
  Cl  Cl2       1.0  0.57575  0.43415  0.26716  1.0000
  Cl  Cl3       1.0  0.92425  0.06585  0.73284  1.0000
  Cl  Cl4       1.0  0.07575  0.93415  0.26716  1.0000
  Cl  Cl5       1.0  0.42425  0.43415  0.23284  1.0000
  Cl  Cl6       1.0  0.57575  0.56585  0.76716  1.0000
  Cl  Cl7       1.0  0.92425  0.93415  0.23284  1.0000
  Cl  Cl8       1.0  0.07575  0.06585  0.76716  1.0000
  P   P1        1.0  0.34257  0.93154  0.70868  1.0000
  P   P2        1.0  0.65743  0.06846  0.29132  1.0000
  P   P3        1.0  0.84257  0.43154  0.70868  1.0000
  P   P4        1.0  0.15743  0.56846  0.29132  1.0000
  P   P5        1.0  0.34257  0.06846  0.20868  1.0000
  P   P6        1.0  0.65743  0.93154  0.79132  1.0000
  P   P7        1.0  0.84257  0.56846  0.20868  1.0000
  P   P8        1.0  0.15743  0.43154  0.79132  1.0000
  P   P9        1.0  0.39300  0.39374  0.56091  1.0000
  P   P10       1.0  0.60700  0.60626  0.43909  1.0000
  P   P11       1.0  0.89300  0.89374  0.56091  1.0000
  P   P12       1.0  0.10700  0.10626  0.43909  1.0000
  P   P13       1.0  0.39300  0.60626  0.06091  1.0000
  P   P14       1.0  0.60700  0.39374  0.93909  1.0000
  P   P15       1.0  0.89300  0.10626  0.06091  1.0000
  P   P16       1.0  0.10700  0.89374  0.93909  1.0000
  F   F1        1.0  0.27986  0.98189  0.66501  1.0000
  F   F2        1.0  0.72014  0.01811  0.33499  1.0000
  F   F3        1.0  0.77986  0.48189  0.66501  1.0000
  F   F4        1.0  0.22014  0.51811  0.33499  1.0000
  F   F5        1.0  0.27986  0.01811  0.16501  1.0000
  F   F6        1.0  0.72014  0.98189  0.83499  1.0000
  F   F7        1.0  0.77986  0.51811  0.16501  1.0000
  F   F8        1.0  0.22014  0.48189  0.83499  1.0000
  F   F9        1.0  0.30529  0.91853  0.77275  1.0000
  F   F10       1.0  0.69471  0.08147  0.22725  1.0000
  F   F11       1.0  0.80529  0.41853  0.77275  1.0000
  F   F12       1.0  0.19471  0.58147  0.22725  1.0000
  F   F13       1.0  0.30529  0.08147  0.27275  1.0000
  F   F14       1.0  0.69471  0.91853  0.72725  1.0000
  F   F15       1.0  0.80529  0.58147  0.27275  1.0000
  F   F16       1.0  0.19471  0.41853  0.72725  1.0000
  F   F17       1.0  0.30395  0.86362  0.66298  1.0000
  F   F18       1.0  0.69605  0.13638  0.33702  1.0000
  F   F19       1.0  0.80395  0.36362  0.66298  1.0000
  F   F20       1.0  0.19605  0.63638  0.33702  1.0000
  F   F21       1.0  0.30395  0.13638  0.16298  1.0000
  F   F22       1.0  0.69605  0.86362  0.83702  1.0000
  F   F23       1.0  0.80395  0.63638  0.16298  1.0000
  F   F24       1.0  0.19605  0.36362  0.83702  1.0000
  F   F25       1.0  0.40564  0.88190  0.75170  1.0000
  F   F26       1.0  0.59436  0.11810  0.24830  1.0000
  F   F27       1.0  0.90564  0.38190  0.75170  1.0000
  F   F28       1.0  0.09436  0.61810  0.24830  1.0000
  F   F29       1.0  0.40564  0.11810  0.25170  1.0000
  F   F30       1.0  0.59436  0.88190  0.74830  1.0000
  F   F31       1.0  0.90564  0.61810  0.25170  1.0000
  F   F32       1.0  0.09436  0.38190  0.74830  1.0000
  F   F33       1.0  0.38056  0.94608  0.64407  1.0000
  F   F34       1.0  0.61944  0.05392  0.35593  1.0000
  F   F35       1.0  0.88056  0.44608  0.64407  1.0000
  F   F36       1.0  0.11944  0.55392  0.35593  1.0000
  F   F37       1.0  0.38056  0.05392  0.14407  1.0000
  F   F38       1.0  0.61944  0.94608  0.85593  1.0000
  F   F39       1.0  0.88056  0.55392  0.14407  1.0000
  F   F40       1.0  0.11944  0.44608  0.85593  1.0000
  F   F41       1.0  0.38103  0.00072  0.75310  1.0000
  F   F42       1.0  0.61897  0.99928  0.24690  1.0000
  F   F43       1.0  0.88103  0.50072  0.75310  1.0000
  F   F44       1.0  0.11897  0.49928  0.24690  1.0000
  F   F45       1.0  0.38103  0.99928  0.25310  1.0000
  F   F46       1.0  0.61897  0.00072  0.74690  1.0000
  F   F47       1.0  0.88103  0.49928  0.25310  1.0000
  F   F48       1.0  0.11897  0.50072  0.74690  1.0000
  F   F49       1.0  0.34512  0.43314  0.60502  1.0000
  F   F50       1.0  0.65488  0.56686  0.39498  1.0000
  F   F51       1.0  0.84512  0.93314  0.60502  1.0000
  F   F52       1.0  0.15488  0.06686  0.39498  1.0000
  F   F53       1.0  0.34512  0.56686  0.10502  1.0000
  F   F54       1.0  0.65488  0.43314  0.89498  1.0000
  F   F55       1.0  0.84512  0.06686  0.10502  1.0000
  F   F56       1.0  0.15488  0.93314  0.89498  1.0000
  F   F57       1.0  0.34378  0.32415  0.55110  1.0000
  F   F58       1.0  0.65622  0.67585  0.44890  1.0000
  F   F59       1.0  0.84378  0.82415  0.55110  1.0000
  F   F60       1.0  0.15622  0.17585  0.44890  1.0000
  F   F61       1.0  0.34378  0.67585  0.05110  1.0000
  F   F62       1.0  0.65622  0.32415  0.94890  1.0000
  F   F63       1.0  0.84378  0.17585  0.05110  1.0000
  F   F64       1.0  0.15622  0.82415  0.94890  1.0000
  F   F65       1.0  0.44048  0.36303  0.63893  1.0000
  F   F66       1.0  0.55952  0.63697  0.36107  1.0000
  F   F67       1.0  0.94048  0.86303  0.63893  1.0000
  F   F68       1.0  0.05952  0.13697  0.36107  1.0000
  F   F69       1.0  0.44048  0.63697  0.13893  1.0000
  F   F70       1.0  0.55952  0.36303  0.86107  1.0000
  F   F71       1.0  0.94048  0.13697  0.13893  1.0000
  F   F72       1.0  0.05952  0.86303  0.86107  1.0000
  F   F73       1.0  0.44029  0.35330  0.51820  1.0000
  F   F74       1.0  0.55971  0.64670  0.48180  1.0000
  F   F75       1.0  0.94029  0.85330  0.51820  1.0000
  F   F76       1.0  0.05971  0.14670  0.48180  1.0000
  F   F77       1.0  0.44029  0.64670  0.01820  1.0000
  F   F78       1.0  0.55971  0.35330  0.98180  1.0000
  F   F79       1.0  0.94029  0.14670  0.01820  1.0000
  F   F80       1.0  0.05971  0.85330  0.98180  1.0000
  F   F81       1.0  0.44124  0.46440  0.57090  1.0000
  F   F82       1.0  0.55876  0.53560  0.42910  1.0000
  F   F83       1.0  0.94124  0.96440  0.57090  1.0000
  F   F84       1.0  0.05876  0.03560  0.42910  1.0000
  F   F85       1.0  0.44124  0.53560  0.07090  1.0000
  F   F86       1.0  0.55876  0.46440  0.92910  1.0000
  F   F87       1.0  0.94124  0.03560  0.07090  1.0000
  F   F88       1.0  0.05876  0.96440  0.92910  1.0000
  F   F89       1.0  0.34542  0.42545  0.48375  1.0000
  F   F90       1.0  0.65458  0.57455  0.51625  1.0000
  F   F91       1.0  0.84542  0.92545  0.48375  1.0000
  F   F92       1.0  0.15458  0.07455  0.51625  1.0000
  F   F93       1.0  0.34542  0.57455  0.98375  1.0000
  F   F94       1.0  0.65458  0.42545  0.01625  1.0000
  F   F95       1.0  0.84542  0.07455  0.98375  1.0000
  F   F96       1.0  0.15458  0.92545  0.01625  1.0000
  O   O1        1.0  0.29050  0.72530  0.58340  1.0000
  O   O2        1.0  0.70950  0.27470  0.41660  1.0000
  O   O3        1.0  0.79050  0.22530  0.58340  1.0000
  O   O4        1.0  0.20950  0.77470  0.41660  1.0000
  O   O5        1.0  0.29050  0.27470  0.08340  1.0000
  O   O6        1.0  0.70950  0.72530  0.91660  1.0000
  O   O7        1.0  0.79050  0.77470  0.08340  1.0000
  O   O8        1.0  0.20950  0.22530  0.91660  1.0000
  N   N1        1.0  0.06080  0.66820  0.61720  1.0000
  N   N2        1.0  0.93920  0.33180  0.38280  1.0000
  N   N3        1.0  0.56080  0.16820  0.61720  1.0000
  N   N4        1.0  0.43920  0.83180  0.38280  1.0000
  N   N5        1.0  0.06080  0.33180  0.11720  1.0000
  N   N6        1.0  0.93920  0.66820  0.88280  1.0000
  N   N7        1.0  0.56080  0.83180  0.11720  1.0000
  N   N8        1.0  0.43920  0.16820  0.88280  1.0000
  N   N9        1.0  0.19310  0.69750  0.70870  1.0000
  N   N10       1.0  0.80690  0.30250  0.29130  1.0000
  N   N11       1.0  0.69310  0.19750  0.70870  1.0000
  N   N12       1.0  0.30690  0.80250  0.29130  1.0000
  N   N13       1.0  0.19310  0.30250  0.20870  1.0000
  N   N14       1.0  0.80690  0.69750  0.79130  1.0000
  N   N15       1.0  0.69310  0.80250  0.20870  1.0000
  N   N16       1.0  0.30690  0.19750  0.79130  1.0000
  N   N17       1.0  0.13830  0.79760  0.61950  1.0000
  N   N18       1.0  0.86170  0.20240  0.38050  1.0000
  N   N19       1.0  0.63830  0.29760  0.61950  1.0000
  N   N20       1.0  0.36170  0.70240  0.38050  1.0000
  N   N21       1.0  0.13830  0.20240  0.11950  1.0000
  N   N22       1.0  0.86170  0.79760  0.88050  1.0000
  N   N23       1.0  0.63830  0.70240  0.11950  1.0000
  N   N24       1.0  0.36170  0.29760  0.88050  1.0000
  N   N25       1.0  0.10110  0.73000  0.49630  1.0000
  N   N26       1.0  0.89890  0.27000  0.50370  1.0000
  N   N27       1.0  0.60110  0.23000  0.49630  1.0000
  N   N28       1.0  0.39890  0.77000  0.50370  1.0000
  N   N29       1.0  0.10110  0.27000  0.99630  1.0000
  N   N30       1.0  0.89890  0.73000  0.00370  1.0000
  N   N31       1.0  0.60110  0.77000  0.99630  1.0000
  N   N32       1.0  0.39890  0.23000  0.00370  1.0000
  N   N33       1.0  0.18850  0.54970  0.54700  1.0000
  N   N34       1.0  0.81150  0.45030  0.45300  1.0000
  N   N35       1.0  0.68850  0.04970  0.54700  1.0000
  N   N36       1.0  0.31150  0.95030  0.45300  1.0000
  N   N37       1.0  0.18850  0.45030  0.04700  1.0000
  N   N38       1.0  0.81150  0.54970  0.95300  1.0000
  N   N39       1.0  0.68850  0.95030  0.04700  1.0000
  N   N40       1.0  0.31150  0.04970  0.95300  1.0000
  N   N41       1.0  0.09830  0.55700  0.59040  1.0000
  N   N42       1.0  0.90170  0.44300  0.40960  1.0000
  N   N43       1.0  0.59830  0.05700  0.59040  1.0000
  N   N44       1.0  0.40170  0.94300  0.40960  1.0000
  N   N45       1.0  0.09830  0.44300  0.09040  1.0000
  N   N46       1.0  0.90170  0.55700  0.90960  1.0000
  N   N47       1.0  0.59830  0.94300  0.09040  1.0000
  N   N48       1.0  0.40170  0.05700  0.90960  1.0000
  C   C1        1.0  0.15200  0.59660  0.57600  1.0000
  C   C2        1.0  0.84800  0.40340  0.42400  1.0000
  C   C3        1.0  0.65200  0.09660  0.57600  1.0000
  C   C4        1.0  0.34800  0.90340  0.42400  1.0000
  C   C5        1.0  0.15200  0.40340  0.07600  1.0000
  C   C6        1.0  0.84800  0.59660  0.92400  1.0000
  C   C7        1.0  0.65200  0.90340  0.07600  1.0000
  C   C8        1.0  0.34800  0.09660  0.92400  1.0000
  C   C9        1.0  0.23530  0.71470  0.58720  1.0000
  C   C10       1.0  0.76470  0.28530  0.41280  1.0000
  C   C11       1.0  0.73530  0.21470  0.58720  1.0000
  C   C12       1.0  0.26470  0.78530  0.41280  1.0000
  C   C13       1.0  0.23530  0.28530  0.08720  1.0000
  C   C14       1.0  0.76470  0.71470  0.91280  1.0000
  C   C15       1.0  0.73530  0.78530  0.08720  1.0000
  C   C16       1.0  0.26470  0.21470  0.91280  1.0000
  C   C17       1.0  0.22090  0.64100  0.75180  1.0000
  C   C18       1.0  0.77910  0.35900  0.24820  1.0000
  C   C19       1.0  0.72090  0.14100  0.75180  1.0000
  C   C20       1.0  0.27910  0.85900  0.24820  1.0000
  C   C21       1.0  0.22090  0.35900  0.25180  1.0000
  C   C22       1.0  0.77910  0.64100  0.74820  1.0000
  C   C23       1.0  0.72090  0.85900  0.25180  1.0000
  C   C24       1.0  0.27910  0.14100  0.74820  1.0000
  C   C25       1.0  0.24940  0.64760  0.82830  1.0000
  C   C26       1.0  0.75060  0.35240  0.17170  1.0000
  C   C27       1.0  0.74940  0.14760  0.82830  1.0000
  C   C28       1.0  0.25060  0.85240  0.17170  1.0000
  C   C29       1.0  0.24940  0.35240  0.32830  1.0000
  C   C30       1.0  0.75060  0.64760  0.67170  1.0000
  C   C31       1.0  0.74940  0.85240  0.32830  1.0000
  C   C32       1.0  0.25060  0.14760  0.67170  1.0000
  C   C33       1.0  0.25010  0.71430  0.86180  1.0000
  C   C34       1.0  0.74990  0.28570  0.13820  1.0000
  C   C35       1.0  0.75010  0.21430  0.86180  1.0000
  C   C36       1.0  0.24990  0.78570  0.13820  1.0000
  C   C37       1.0  0.25010  0.28570  0.36180  1.0000
  C   C38       1.0  0.74990  0.71430  0.63820  1.0000
  C   C39       1.0  0.75010  0.78570  0.36180  1.0000
  C   C40       1.0  0.24990  0.21430  0.63820  1.0000
  C   C41       1.0  0.22160  0.77330  0.81790  1.0000
  C   C42       1.0  0.77840  0.22670  0.18210  1.0000
  C   C43       1.0  0.72160  0.27330  0.81790  1.0000
  C   C44       1.0  0.27840  0.72670  0.18210  1.0000
  C   C45       1.0  0.22160  0.22670  0.31790  1.0000
  C   C46       1.0  0.77840  0.77330  0.68210  1.0000
  C   C47       1.0  0.72160  0.72670  0.31790  1.0000
  C   C48       1.0  0.27840  0.27330  0.68210  1.0000
  C   C49       1.0  0.19270  0.76400  0.74240  1.0000
  C   C50       1.0  0.80730  0.23600  0.25760  1.0000
  C   C51       1.0  0.69270  0.26400  0.74240  1.0000
  C   C52       1.0  0.30730  0.73600  0.25760  1.0000
  C   C53       1.0  0.19270  0.23600  0.24240  1.0000
  C   C54       1.0  0.80730  0.76400  0.75760  1.0000
  C   C55       1.0  0.69270  0.73600  0.24240  1.0000
  C   C56       1.0  0.30730  0.26400  0.75760  1.0000
  C   C57       1.0  0.16070  0.82160  0.68960  1.0000
  C   C58       1.0  0.83930  0.17840  0.31040  1.0000
  C   C59       1.0  0.66070  0.32160  0.68960  1.0000
  C   C60       1.0  0.33930  0.67840  0.31040  1.0000
  C   C61       1.0  0.16070  0.17840  0.18960  1.0000
  C   C62       1.0  0.83930  0.82160  0.81040  1.0000
  C   C63       1.0  0.66070  0.67840  0.18960  1.0000
  C   C64       1.0  0.33930  0.32160  0.81040  1.0000
  C   C65       1.0  0.15160  0.89390  0.70540  1.0000
  C   C66       1.0  0.84840  0.10610  0.29460  1.0000
  C   C67       1.0  0.65160  0.39390  0.70540  1.0000
  C   C68       1.0  0.34840  0.60610  0.29460  1.0000
  C   C69       1.0  0.15160  0.10610  0.20540  1.0000
  C   C70       1.0  0.84840  0.89390  0.79460  1.0000
  C   C71       1.0  0.65160  0.60610  0.20540  1.0000
  C   C72       1.0  0.34840  0.39390  0.79460  1.0000
  C   C73       1.0  0.12200  0.93980  0.64640  1.0000
  C   C74       1.0  0.87800  0.06020  0.35360  1.0000
  C   C75       1.0  0.62200  0.43980  0.64640  1.0000
  C   C76       1.0  0.37800  0.56020  0.35360  1.0000
  C   C77       1.0  0.12200  0.06020  0.14640  1.0000
  C   C78       1.0  0.87800  0.93980  0.85360  1.0000
  C   C79       1.0  0.62200  0.56020  0.14640  1.0000
  C   C80       1.0  0.37800  0.43980  0.85360  1.0000
  C   C81       1.0  0.09870  0.91430  0.57370  1.0000
  C   C82       1.0  0.90130  0.08570  0.42630  1.0000
  C   C83       1.0  0.59870  0.41430  0.57370  1.0000
  C   C84       1.0  0.40130  0.58570  0.42630  1.0000
  C   C85       1.0  0.09870  0.08570  0.07370  1.0000
  C   C86       1.0  0.90130  0.91430  0.92630  1.0000
  C   C87       1.0  0.59870  0.58570  0.07370  1.0000
  C   C88       1.0  0.40130  0.41430  0.92630  1.0000
  C   C89       1.0  0.10660  0.84140  0.56200  1.0000
  C   C90       1.0  0.89340  0.15860  0.43800  1.0000
  C   C91       1.0  0.60660  0.34140  0.56200  1.0000
  C   C92       1.0  0.39340  0.65860  0.43800  1.0000
  C   C93       1.0  0.10660  0.15860  0.06200  1.0000
  C   C94       1.0  0.89340  0.84140  0.93800  1.0000
  C   C95       1.0  0.60660  0.65860  0.06200  1.0000
  C   C96       1.0  0.39340  0.34140  0.93800  1.0000
  C   C97       1.0  0.08280  0.80160  0.49140  1.0000
  C   C98       1.0  0.91720  0.19840  0.50860  1.0000
  C   C99       1.0  0.58280  0.30160  0.49140  1.0000
  C   C100      1.0  0.41720  0.69840  0.50860  1.0000
  C   C101      1.0  0.08280  0.19840  0.99140  1.0000
  C   C102      1.0  0.91720  0.80160  0.00860  1.0000
  C   C103      1.0  0.58280  0.69840  0.99140  1.0000
  C   C104      1.0  0.41720  0.30160  0.00860  1.0000
  C   C105      1.0  0.04340  0.83090  0.42450  1.0000
  C   C106      1.0  0.95660  0.16910  0.57550  1.0000
  C   C107      1.0  0.54340  0.33090  0.42450  1.0000
  C   C108      1.0  0.45660  0.66910  0.57550  1.0000
  C   C109      1.0  0.04340  0.16910  0.92450  1.0000
  C   C110      1.0  0.95660  0.83090  0.07550  1.0000
  C   C111      1.0  0.54340  0.66910  0.92450  1.0000
  C   C112      1.0  0.45660  0.33090  0.07550  1.0000
  C   C113      1.0  0.02220  0.78690  0.36200  1.0000
  C   C114      1.0  0.97780  0.21310  0.63800  1.0000
  C   C115      1.0  0.52220  0.28690  0.36200  1.0000
  C   C116      1.0  0.47780  0.71310  0.63800  1.0000
  C   C117      1.0  0.02220  0.21310  0.86200  1.0000
  C   C118      1.0  0.97780  0.78690  0.13800  1.0000
  C   C119      1.0  0.52220  0.71310  0.86200  1.0000
  C   C120      1.0  0.47780  0.28690  0.13800  1.0000
  C   C121      1.0  0.04260  0.71640  0.36660  1.0000
  C   C122      1.0  0.95740  0.28360  0.63340  1.0000
  C   C123      1.0  0.54260  0.21640  0.36660  1.0000
  C   C124      1.0  0.45740  0.78360  0.63340  1.0000
  C   C125      1.0  0.04260  0.28360  0.86660  1.0000
  C   C126      1.0  0.95740  0.71640  0.13340  1.0000
  C   C127      1.0  0.54260  0.78360  0.86660  1.0000
  C   C128      1.0  0.45740  0.21640  0.13340  1.0000
  C   C129      1.0  0.08200  0.69040  0.43430  1.0000
  C   C130      1.0  0.91800  0.30960  0.56570  1.0000
  C   C131      1.0  0.58200  0.19040  0.43430  1.0000
  C   C132      1.0  0.41800  0.80960  0.56570  1.0000
  C   C133      1.0  0.08200  0.30960  0.93430  1.0000
  C   C134      1.0  0.91800  0.69040  0.06570  1.0000
  C   C135      1.0  0.58200  0.80960  0.93430  1.0000
  C   C136      1.0  0.41800  0.19040  0.06570  1.0000
  C   C137      1.0  0.01480  0.71110  0.63670  1.0000
  C   C138      1.0  0.98520  0.28890  0.36330  1.0000
  C   C139      1.0  0.51480  0.21110  0.63670  1.0000
  C   C140      1.0  0.48520  0.78890  0.36330  1.0000
  C   C141      1.0  0.01480  0.28890  0.13670  1.0000
  C   C142      1.0  0.98520  0.71110  0.86330  1.0000
  C   C143      1.0  0.51480  0.78890  0.13670  1.0000
  C   C144      1.0  0.48520  0.21110  0.86330  1.0000
  C   C145      1.0  0.95670  0.68540  0.65490  1.0000
  C   C146      1.0  0.04330  0.31460  0.34510  1.0000
  C   C147      1.0  0.45670  0.18540  0.65490  1.0000
  C   C148      1.0  0.54330  0.81460  0.34510  1.0000
  C   C149      1.0  0.95670  0.31460  0.15490  1.0000
  C   C150      1.0  0.04330  0.68540  0.84510  1.0000
  C   C151      1.0  0.45670  0.81460  0.15490  1.0000
  C   C152      1.0  0.54330  0.18540  0.84510  1.0000
  C   C153      1.0  0.94660  0.61160  0.65510  1.0000
  C   C154      1.0  0.05340  0.38840  0.34490  1.0000
  C   C155      1.0  0.44660  0.11160  0.65510  1.0000
  C   C156      1.0  0.55340  0.88840  0.34490  1.0000
  C   C157      1.0  0.94660  0.38840  0.15510  1.0000
  C   C158      1.0  0.05340  0.61160  0.84490  1.0000
  C   C159      1.0  0.44660  0.88840  0.15510  1.0000
  C   C160      1.0  0.55340  0.11160  0.84490  1.0000
  C   C161      1.0  0.99320  0.56600  0.63490  1.0000
  C   C162      1.0  0.00680  0.43400  0.36510  1.0000
  C   C163      1.0  0.49320  0.06600  0.63490  1.0000
  C   C164      1.0  0.50680  0.93400  0.36510  1.0000
  C   C165      1.0  0.99320  0.43400  0.13490  1.0000
  C   C166      1.0  0.00680  0.56600  0.86510  1.0000
  C   C167      1.0  0.49320  0.93400  0.13490  1.0000
  C   C168      1.0  0.50680  0.06600  0.86510  1.0000
  C   C169      1.0  0.04860  0.59580  0.61530  1.0000
  C   C170      1.0  0.95140  0.40420  0.38470  1.0000
  C   C171      1.0  0.54860  0.09580  0.61530  1.0000
  C   C172      1.0  0.45140  0.90420  0.38470  1.0000
  C   C173      1.0  0.04860  0.40420  0.11530  1.0000
  C   C174      1.0  0.95140  0.59580  0.88470  1.0000
  C   C175      1.0  0.54860  0.90420  0.11530  1.0000
  C   C176      1.0  0.45140  0.09580  0.88470  1.0000
  C   C177      1.0  0.10160  0.48400  0.56980  1.0000
  C   C178      1.0  0.89840  0.51600  0.43020  1.0000
  C   C179      1.0  0.60160  0.98400  0.56980  1.0000
  C   C180      1.0  0.39840  0.01600  0.43020  1.0000
  C   C181      1.0  0.10160  0.51600  0.06980  1.0000
  C   C182      1.0  0.89840  0.48400  0.93020  1.0000
  C   C183      1.0  0.60160  0.01600  0.06980  1.0000
  C   C184      1.0  0.39840  0.98400  0.93020  1.0000
  C   C185      1.0  0.06260  0.42310  0.57360  1.0000
  C   C186      1.0  0.93740  0.57690  0.42640  1.0000
  C   C187      1.0  0.56260  0.92310  0.57360  1.0000
  C   C188      1.0  0.43740  0.07690  0.42640  1.0000
  C   C189      1.0  0.06260  0.57690  0.07360  1.0000
  C   C190      1.0  0.93740  0.42310  0.92640  1.0000
  C   C191      1.0  0.56260  0.07690  0.07360  1.0000
  C   C192      1.0  0.43740  0.92310  0.92640  1.0000
  C   C193      1.0  0.08410  0.35830  0.54770  1.0000
  C   C194      1.0  0.91590  0.64170  0.45230  1.0000
  C   C195      1.0  0.58410  0.85830  0.54770  1.0000
  C   C196      1.0  0.41590  0.14170  0.45230  1.0000
  C   C197      1.0  0.08410  0.64170  0.04770  1.0000
  C   C198      1.0  0.91590  0.35830  0.95230  1.0000
  C   C199      1.0  0.58410  0.14170  0.04770  1.0000
  C   C200      1.0  0.41590  0.85830  0.95230  1.0000
  C   C201      1.0  0.14150  0.35530  0.52030  1.0000
  C   C202      1.0  0.85850  0.64470  0.47970  1.0000
  C   C203      1.0  0.64150  0.85530  0.52030  1.0000
  C   C204      1.0  0.35850  0.14470  0.47970  1.0000
  C   C205      1.0  0.14150  0.64470  0.02030  1.0000
  C   C206      1.0  0.85850  0.35530  0.97970  1.0000
  C   C207      1.0  0.64150  0.14470  0.02030  1.0000
  C   C208      1.0  0.35850  0.85530  0.97970  1.0000
  C   C209      1.0  0.18070  0.41620  0.51740  1.0000
  C   C210      1.0  0.81930  0.58380  0.48260  1.0000
  C   C211      1.0  0.68070  0.91620  0.51740  1.0000
  C   C212      1.0  0.31930  0.08380  0.48260  1.0000
  C   C213      1.0  0.18070  0.58380  0.01740  1.0000
  C   C214      1.0  0.81930  0.41620  0.98260  1.0000
  C   C215      1.0  0.68070  0.08380  0.01740  1.0000
  C   C216      1.0  0.31930  0.91620  0.98260  1.0000
  C   C217      1.0  0.15950  0.48020  0.54240  1.0000
  C   C218      1.0  0.84050  0.51980  0.45760  1.0000
  C   C219      1.0  0.65950  0.98020  0.54240  1.0000
  C   C220      1.0  0.34050  0.01980  0.45760  1.0000
  C   C221      1.0  0.15950  0.51980  0.04240  1.0000
  C   C222      1.0  0.84050  0.48020  0.95760  1.0000
  C   C223      1.0  0.65950  0.01980  0.04240  1.0000
  C   C224      1.0  0.34050  0.98020  0.95760  1.0000
  C   C225      1.0  0.24870  0.56700  0.51970  1.0000
  C   C226      1.0  0.75130  0.43300  0.48030  1.0000
  C   C227      1.0  0.74870  0.06700  0.51970  1.0000
  C   C228      1.0  0.25130  0.93300  0.48030  1.0000
  C   C229      1.0  0.24870  0.43300  0.01970  1.0000
  C   C230      1.0  0.75130  0.56700  0.98030  1.0000
  C   C231      1.0  0.74870  0.93300  0.01970  1.0000
  C   C232      1.0  0.25130  0.06700  0.98030  1.0000
  C   C233      1.0  0.50000  0.51390  0.75000  1.0000
  C   C234      1.0  0.50000  0.48610  0.25000  1.0000
  C   C235      1.0  0.00000  0.01390  0.75000  1.0000
  C   C236      1.0  0.00000  0.98610  0.25000  1.0000
  H   H1        1.0  0.22090  0.59500  0.72910  1.0000
  H   H2        1.0  0.77910  0.40500  0.27090  1.0000
  H   H3        1.0  0.72090  0.09500  0.72910  1.0000
  H   H4        1.0  0.27910  0.90500  0.27090  1.0000
  H   H5        1.0  0.22090  0.40500  0.22910  1.0000
  H   H6        1.0  0.77910  0.59500  0.77090  1.0000
  H   H7        1.0  0.72090  0.90500  0.22910  1.0000
  H   H8        1.0  0.27910  0.09500  0.77090  1.0000
  H   H9        1.0  0.26830  0.60650  0.85750  1.0000
  H   H10       1.0  0.73170  0.39350  0.14250  1.0000
  H   H11       1.0  0.76830  0.10650  0.85750  1.0000
  H   H12       1.0  0.23170  0.89350  0.14250  1.0000
  H   H13       1.0  0.26830  0.39350  0.35750  1.0000
  H   H14       1.0  0.73170  0.60650  0.64250  1.0000
  H   H15       1.0  0.76830  0.89350  0.35750  1.0000
  H   H16       1.0  0.23170  0.10650  0.64250  1.0000
  H   H17       1.0  0.26990  0.71970  0.91420  1.0000
  H   H18       1.0  0.73010  0.28030  0.08580  1.0000
  H   H19       1.0  0.76990  0.21970  0.91420  1.0000
  H   H20       1.0  0.23010  0.78030  0.08580  1.0000
  H   H21       1.0  0.26990  0.28030  0.41420  1.0000
  H   H22       1.0  0.73010  0.71970  0.58580  1.0000
  H   H23       1.0  0.76990  0.78030  0.41420  1.0000
  H   H24       1.0  0.23010  0.21970  0.58580  1.0000
  H   H25       1.0  0.22210  0.81970  0.83990  1.0000
  H   H26       1.0  0.77790  0.18030  0.16010  1.0000
  H   H27       1.0  0.72210  0.31970  0.83990  1.0000
  H   H28       1.0  0.27790  0.68030  0.16010  1.0000
  H   H29       1.0  0.22210  0.18030  0.33990  1.0000
  H   H30       1.0  0.77790  0.81970  0.66010  1.0000
  H   H31       1.0  0.72210  0.68030  0.33990  1.0000
  H   H32       1.0  0.27790  0.31970  0.66010  1.0000
  H   H33       1.0  0.16530  0.91130  0.75540  1.0000
  H   H34       1.0  0.83470  0.08870  0.24460  1.0000
  H   H35       1.0  0.66530  0.41130  0.75540  1.0000
  H   H36       1.0  0.33470  0.58870  0.24460  1.0000
  H   H37       1.0  0.16530  0.08870  0.25540  1.0000
  H   H38       1.0  0.83470  0.91130  0.74460  1.0000
  H   H39       1.0  0.66530  0.58870  0.25540  1.0000
  H   H40       1.0  0.33470  0.41130  0.74460  1.0000
  H   H41       1.0  0.11760  0.98970  0.65600  1.0000
  H   H42       1.0  0.88240  0.01030  0.34400  1.0000
  H   H43       1.0  0.61760  0.48970  0.65600  1.0000
  H   H44       1.0  0.38240  0.51030  0.34400  1.0000
  H   H45       1.0  0.11760  0.01030  0.15600  1.0000
  H   H46       1.0  0.88240  0.98970  0.84400  1.0000
  H   H47       1.0  0.61760  0.51030  0.15600  1.0000
  H   H48       1.0  0.38240  0.48970  0.84400  1.0000
  H   H49       1.0  0.07820  0.94580  0.53330  1.0000
  H   H50       1.0  0.92180  0.05420  0.46670  1.0000
  H   H51       1.0  0.57820  0.44580  0.53330  1.0000
  H   H52       1.0  0.42180  0.55420  0.46670  1.0000
  H   H53       1.0  0.07820  0.05420  0.03330  1.0000
  H   H54       1.0  0.92180  0.94580  0.96670  1.0000
  H   H55       1.0  0.57820  0.55420  0.03330  1.0000
  H   H56       1.0  0.42180  0.44580  0.96670  1.0000
  H   H57       1.0  0.03110  0.88060  0.42150  1.0000
  H   H58       1.0  0.96890  0.11940  0.57850  1.0000
  H   H59       1.0  0.53110  0.38060  0.42150  1.0000
  H   H60       1.0  0.46890  0.61940  0.57850  1.0000
  H   H61       1.0  0.03110  0.11940  0.92150  1.0000
  H   H62       1.0  0.96890  0.88060  0.07850  1.0000
  H   H63       1.0  0.53110  0.61940  0.92150  1.0000
  H   H64       1.0  0.46890  0.38060  0.07850  1.0000
  H   H65       1.0  0.99370  0.80570  0.31620  1.0000
  H   H66       1.0  0.00630  0.19430  0.68380  1.0000
  H   H67       1.0  0.49370  0.30570  0.31620  1.0000
  H   H68       1.0  0.50630  0.69430  0.68380  1.0000
  H   H69       1.0  0.99370  0.19430  0.81620  1.0000
  H   H70       1.0  0.00630  0.80570  0.18380  1.0000
  H   H71       1.0  0.49370  0.69430  0.81620  1.0000
  H   H72       1.0  0.50630  0.30570  0.18380  1.0000
  H   H73       1.0  0.02980  0.68590  0.32400  1.0000
  H   H74       1.0  0.97020  0.31410  0.67600  1.0000
  H   H75       1.0  0.52980  0.18590  0.32400  1.0000
  H   H76       1.0  0.47020  0.81410  0.67600  1.0000
  H   H77       1.0  0.02980  0.31410  0.82400  1.0000
  H   H78       1.0  0.97020  0.68590  0.17600  1.0000
  H   H79       1.0  0.52980  0.81410  0.82400  1.0000
  H   H80       1.0  0.47020  0.18590  0.17600  1.0000
  H   H81       1.0  0.09650  0.64130  0.43700  1.0000
  H   H82       1.0  0.90350  0.35870  0.56300  1.0000
  H   H83       1.0  0.59650  0.14130  0.43700  1.0000
  H   H84       1.0  0.40350  0.85870  0.56300  1.0000
  H   H85       1.0  0.09650  0.35870  0.93700  1.0000
  H   H86       1.0  0.90350  0.64130  0.06300  1.0000
  H   H87       1.0  0.59650  0.85870  0.93700  1.0000
  H   H88       1.0  0.40350  0.14130  0.06300  1.0000
  H   H89       1.0  0.02250  0.76180  0.63810  1.0000
  H   H90       1.0  0.97750  0.23820  0.36190  1.0000
  H   H91       1.0  0.52250  0.26180  0.63810  1.0000
  H   H92       1.0  0.47750  0.73820  0.36190  1.0000
  H   H93       1.0  0.02250  0.23820  0.13810  1.0000
  H   H94       1.0  0.97750  0.76180  0.86190  1.0000
  H   H95       1.0  0.52250  0.73820  0.13810  1.0000
  H   H96       1.0  0.47750  0.26180  0.86190  1.0000
  H   H97       1.0  0.92460  0.71770  0.66710  1.0000
  H   H98       1.0  0.07540  0.28230  0.33290  1.0000
  H   H99       1.0  0.42460  0.21770  0.66710  1.0000
  H   H100      1.0  0.57540  0.78230  0.33290  1.0000
  H   H101      1.0  0.92460  0.28230  0.16710  1.0000
  H   H102      1.0  0.07540  0.71770  0.83290  1.0000
  H   H103      1.0  0.42460  0.78230  0.16710  1.0000
  H   H104      1.0  0.57540  0.21770  0.83290  1.0000
  H   H105      1.0  0.90800  0.59230  0.66890  1.0000
  H   H106      1.0  0.09200  0.40770  0.33110  1.0000
  H   H107      1.0  0.40800  0.09230  0.66890  1.0000
  H   H108      1.0  0.59200  0.90770  0.33110  1.0000
  H   H109      1.0  0.90800  0.40770  0.16890  1.0000
  H   H110      1.0  0.09200  0.59230  0.83110  1.0000
  H   H111      1.0  0.40800  0.90770  0.16890  1.0000
  H   H112      1.0  0.59200  0.09230  0.83110  1.0000
  H   H113      1.0  0.98690  0.51510  0.63460  1.0000
  H   H114      1.0  0.01310  0.48490  0.36540  1.0000
  H   H115      1.0  0.48690  0.01510  0.63460  1.0000
  H   H116      1.0  0.51310  0.98490  0.36540  1.0000
  H   H117      1.0  0.98690  0.48490  0.13460  1.0000
  H   H118      1.0  0.01310  0.51510  0.86540  1.0000
  H   H119      1.0  0.48690  0.98490  0.13460  1.0000
  H   H120      1.0  0.51310  0.01510  0.86540  1.0000
  H   H121      1.0  0.02330  0.42500  0.59270  1.0000
  H   H122      1.0  0.97670  0.57500  0.40730  1.0000
  H   H123      1.0  0.52330  0.92500  0.59270  1.0000
  H   H124      1.0  0.47670  0.07500  0.40730  1.0000
  H   H125      1.0  0.02330  0.57500  0.09270  1.0000
  H   H126      1.0  0.97670  0.42500  0.90730  1.0000
  H   H127      1.0  0.52330  0.07500  0.09270  1.0000
  H   H128      1.0  0.47670  0.92500  0.90730  1.0000
  H   H129      1.0  0.05840  0.31540  0.54900  1.0000
  H   H130      1.0  0.94160  0.68460  0.45100  1.0000
  H   H131      1.0  0.55840  0.81540  0.54900  1.0000
  H   H132      1.0  0.44160  0.18460  0.45100  1.0000
  H   H133      1.0  0.05840  0.68460  0.04900  1.0000
  H   H134      1.0  0.94160  0.31540  0.95100  1.0000
  H   H135      1.0  0.55840  0.18460  0.04900  1.0000
  H   H136      1.0  0.44160  0.81540  0.95100  1.0000
  H   H137      1.0  0.15440  0.31050  0.50320  1.0000
  H   H138      1.0  0.84560  0.68950  0.49680  1.0000
  H   H139      1.0  0.65440  0.81050  0.50320  1.0000
  H   H140      1.0  0.34560  0.18950  0.49680  1.0000
  H   H141      1.0  0.15440  0.68950  0.00320  1.0000
  H   H142      1.0  0.84560  0.31050  0.99680  1.0000
  H   H143      1.0  0.65440  0.18950  0.00320  1.0000
  H   H144      1.0  0.34560  0.81050  0.99680  1.0000
  H   H145      1.0  0.22050  0.41410  0.49900  1.0000
  H   H146      1.0  0.77950  0.58590  0.50100  1.0000
  H   H147      1.0  0.72050  0.91410  0.49900  1.0000
  H   H148      1.0  0.27950  0.08590  0.50100  1.0000
  H   H149      1.0  0.22050  0.58590  0.99900  1.0000
  H   H150      1.0  0.77950  0.41410  0.00100  1.0000
  H   H151      1.0  0.72050  0.08590  0.99900  1.0000
  H   H152      1.0  0.27950  0.91410  0.00100  1.0000
  H   H153      1.0  0.26510  0.52420  0.50200  1.0000
  H   H154      1.0  0.73490  0.47580  0.49800  1.0000
  H   H155      1.0  0.76510  0.02420  0.50200  1.0000
  H   H156      1.0  0.23490  0.97580  0.49800  1.0000
  H   H157      1.0  0.26510  0.47580  0.00200  1.0000
  H   H158      1.0  0.73490  0.52420  0.99800  1.0000
  H   H159      1.0  0.76510  0.97580  0.00200  1.0000
  H   H160      1.0  0.23490  0.02420  0.99800  1.0000
  H   H161      1.0  0.28460  0.58690  0.55930  1.0000
  H   H162      1.0  0.71540  0.41310  0.44070  1.0000
  H   H163      1.0  0.78460  0.08690  0.55930  1.0000
  H   H164      1.0  0.21540  0.91310  0.44070  1.0000
  H   H165      1.0  0.28460  0.41310  0.05930  1.0000
  H   H166      1.0  0.71540  0.58690  0.94070  1.0000
  H   H167      1.0  0.78460  0.91310  0.05930  1.0000
  H   H168      1.0  0.21540  0.08690  0.94070  1.0000
  H   H169      1.0  0.23550  0.60110  0.48010  1.0000
  H   H170      1.0  0.76450  0.39890  0.51990  1.0000
  H   H171      1.0  0.73550  0.10110  0.48010  1.0000
  H   H172      1.0  0.26450  0.89890  0.51990  1.0000
  H   H173      1.0  0.23550  0.39890  0.98010  1.0000
  H   H174      1.0  0.76450  0.60110  0.01990  1.0000
  H   H175      1.0  0.73550  0.89890  0.98010  1.0000
  H   H176      1.0  0.26450  0.10110  0.01990  1.0000
  H   H177      1.0  0.50270  0.48430  0.79240  1.0000
  H   H178      1.0  0.49730  0.51570  0.20760  1.0000
  H   H179      1.0  0.00270  0.98430  0.79240  1.0000
  H   H180      1.0  0.99730  0.01570  0.20760  1.0000
  H   H181      1.0  0.50270  0.51570  0.29240  1.0000
  H   H182      1.0  0.49730  0.48430  0.70760  1.0000
  H   H183      1.0  0.00270  0.01570  0.29240  1.0000
  H   H184      1.0  0.99730  0.98430  0.70760  1.0000
