data_image0
_chemical_formula_structural       Pd6Cl12N2H2N2H2N2H2N2H2N2H2N2H2C4H2C2H2C2H2C2H2C4H4C4H2C2H2C2H2C2H2C4H4C4H2C2H2C2H2C2H2C4H4C4H2C2H2C2H2C2H2C4H4C4H2C2H2C2H2C2H2C4H4C4H2C2H2C2H2C2H2C4H4Pd6Cl12N2H2N2H2N2H2N2H2N2H2N2H2C4H2C2H2C2H2C2H2C4H4C4H2C2H2C2H2C2H2C4H4C4H2C2H2C2H2C2H2C4H4C4H2C2H2C2H2C2H2C4H4C4H2C2H2C2H2C2H2C4H4C4H2C2H2C2H2C2H2C4H4Pd6Cl12N2H2N2H2N2H2N2H2N2H2N2H2C4H2C2H2C2H2C2H2C4H4C4H2C2H2C2H2C2H2C4H4C4H2C2H2C2H2C2H2C4H4C4H2C2H2C2H2C2H2C4H4C4H2C2H2C2H2C2H2C4H4C4H2C2H2C2H2C2H2C4H4Pd6Cl12N2H2N2H2N2H2N2H2N2H2N2H2C4H2C2H2C2H2C2H2C4H4C4H2C2H2C2H2C2H2C4H4C4H2C2H2C2H2C2H2C4H4C4H2C2H2C2H2C2H2C4H4C4H2C2H2C2H2C2H2C4H4C4H2C2H2C2H2C2H2C4H4Cl2C4H2C4H2C2H2C2H2C2H2C2H6O6C14N2C4H6Cl2C4H2C4H2C2H2C2H2C2O2C6H2C2H2C2H2C2H2C4H6O8N2C4H6N2C4H6N2C4H6N2C4H6
_chemical_formula_sum              "Pd24 Cl52 N58 H404 C416 O16"
_cell_length_a       14.338
_cell_length_b       52.953
_cell_length_c       19.7623
_cell_angle_alpha    90
_cell_angle_beta     90.789
_cell_angle_gamma    90

_space_group_name_H-M_alt    "P 1"
_space_group_IT_number       1

loop_
  _space_group_symop_operation_xyz
  'x, y, z'

loop_
  _atom_site_type_symbol
  _atom_site_label
  _atom_site_symmetry_multiplicity
  _atom_site_fract_x
  _atom_site_fract_y
  _atom_site_fract_z
  _atom_site_occupancy
  Pd  Pd1       1.0  0.23722  0.31689  0.40916  1.0000
  Pd  Pd2       1.0  0.76278  0.81689  0.59084  1.0000
  Pd  Pd3       1.0  0.42144  0.32069  0.95925  1.0000
  Pd  Pd4       1.0  0.57856  0.82069  0.04075  1.0000
  Pd  Pd5       1.0  0.84507  0.28492  0.27831  1.0000
  Pd  Pd6       1.0  0.15493  0.78492  0.72169  1.0000
  Cl  Cl1       1.0  0.26412  0.27367  0.41209  1.0000
  Cl  Cl2       1.0  0.73588  0.77367  0.58791  1.0000
  Cl  Cl3       1.0  0.07677  0.31244  0.41120  1.0000
  Cl  Cl4       1.0  0.92323  0.81244  0.58880  1.0000
  Cl  Cl5       1.0  0.35830  0.28182  0.98471  1.0000
  Cl  Cl6       1.0  0.64170  0.78182  0.01529  1.0000
  Cl  Cl7       1.0  0.49570  0.30545  0.86507  1.0000
  Cl  Cl8       1.0  0.50430  0.80545  0.13493  1.0000
  Cl  Cl9       1.0  0.81360  0.25456  0.19740  1.0000
  Cl  Cl10      1.0  0.18640  0.75456  0.80260  1.0000
  Cl  Cl11      1.0  0.87600  0.25584  0.36180  1.0000
  Cl  Cl12      1.0  0.12400  0.75584  0.63820  1.0000
  N   N1        1.0  0.37670  0.32360  0.41860  1.0000
  N   N2        1.0  0.62330  0.82360  0.58140  1.0000
  H   H1        1.0  0.40146  0.31308  0.45695  1.0000
  H   H2        1.0  0.59854  0.81308  0.54305  1.0000
  N   N3        1.0  0.22410  0.35520  0.40310  1.0000
  N   N4        1.0  0.77590  0.85520  0.59690  1.0000
  H   H3        1.0  0.17686  0.36004  0.43753  1.0000
  H   H4        1.0  0.82313  0.86004  0.56247  1.0000
  N   N5        1.0  0.35450  0.33630  0.03990  1.0000
  N   N6        1.0  0.64550  0.83630  0.96010  1.0000
  H   H5        1.0  0.28743  0.33105  0.03869  1.0000
  H   H6        1.0  0.71257  0.83105  0.96131  1.0000
  N   N7        1.0  0.47280  0.35710  0.94320  1.0000
  N   N8        1.0  0.52720  0.85710  0.05680  1.0000
  H   H7        1.0  0.45511  0.36170  0.89565  1.0000
  H   H8        1.0  0.54489  0.86170  0.10435  1.0000
  N   N9        1.0  0.81400  0.31220  0.21020  1.0000
  N   N10       1.0  0.18600  0.81220  0.78980  1.0000
  H   H9        1.0  0.84284  0.30759  0.16608  1.0000
  H   H10       1.0  0.15716  0.80759  0.83392  1.0000
  N   N11       1.0  0.88050  0.31510  0.34000  1.0000
  N   N12       1.0  0.11950  0.81510  0.66000  1.0000
  H   H11       1.0  0.94663  0.31184  0.35417  1.0000
  H   H12       1.0  0.05337  0.81184  0.64583  1.0000
  C   C1        1.0  0.38840  0.35080  0.43720  1.0000
  C   C2        1.0  0.61160  0.85080  0.56280  1.0000
  C   C3        1.0  0.46760  0.35960  0.46760  1.0000
  C   C4        1.0  0.53240  0.85960  0.53240  1.0000
  H   H13       1.0  0.51751  0.34839  0.47813  1.0000
  H   H14       1.0  0.48249  0.84839  0.52187  1.0000
  C   C5        1.0  0.47470  0.38540  0.48310  1.0000
  C   C6        1.0  0.52530  0.88540  0.51690  1.0000
  H   H15       1.0  0.52953  0.39169  0.50467  1.0000
  H   H16       1.0  0.47047  0.89169  0.49533  1.0000
  C   C7        1.0  0.40440  0.40120  0.46770  1.0000
  C   C8        1.0  0.59560  0.90120  0.53230  1.0000
  H   H17       1.0  0.41164  0.41872  0.47613  1.0000
  H   H18       1.0  0.58836  0.91872  0.52387  1.0000
  C   C9        1.0  0.31980  0.39230  0.43910  1.0000
  C   C10       1.0  0.68020  0.89230  0.56090  1.0000
  H   H19       1.0  0.26945  0.40341  0.42940  1.0000
  H   H20       1.0  0.73055  0.90341  0.57060  1.0000
  C   C11       1.0  0.31300  0.36660  0.42570  1.0000
  C   C12       1.0  0.68700  0.86660  0.57430  1.0000
  C   C13       1.0  0.18870  0.36540  0.33670  1.0000
  C   C14       1.0  0.81130  0.86540  0.66330  1.0000
  H   H21       1.0  0.19160  0.38404  0.33772  1.0000
  H   H22       1.0  0.80840  0.88404  0.66228  1.0000
  H   H23       1.0  0.12259  0.36041  0.33032  1.0000
  H   H24       1.0  0.87741  0.86041  0.66968  1.0000
  C   C15       1.0  0.24500  0.35570  0.27680  1.0000
  C   C16       1.0  0.75500  0.85570  0.72320  1.0000
  C   C17       1.0  0.21210  0.33560  0.23840  1.0000
  C   C18       1.0  0.78790  0.83560  0.76160  1.0000
  H   H25       1.0  0.15399  0.32813  0.24948  1.0000
  H   H26       1.0  0.84601  0.82813  0.75052  1.0000
  C   C19       1.0  0.32730  0.36620  0.25720  1.0000
  C   C20       1.0  0.67270  0.86620  0.74280  1.0000
  H   H27       1.0  0.34911  0.38055  0.28139  1.0000
  H   H28       1.0  0.65089  0.88055  0.71861  1.0000
  C   C21       1.0  0.26060  0.32640  0.18570  1.0000
  C   C22       1.0  0.73940  0.82640  0.81430  1.0000
  H   H29       1.0  0.23567  0.31257  0.16064  1.0000
  H   H30       1.0  0.76433  0.81257  0.83936  1.0000
  C   C23       1.0  0.38080  0.35740  0.20510  1.0000
  C   C24       1.0  0.61920  0.85740  0.79490  1.0000
  H   H31       1.0  0.43889  0.36512  0.19509  1.0000
  H   H32       1.0  0.56111  0.86512  0.80491  1.0000
  C   C25       1.0  0.34750  0.33670  0.16670  1.0000
  C   C26       1.0  0.65250  0.83670  0.83330  1.0000
  C   C27       1.0  0.39950  0.32760  0.10710  1.0000
  C   C28       1.0  0.60050  0.82760  0.89290  1.0000
  H   H33       1.0  0.40171  0.30890  0.10803  1.0000
  H   H34       1.0  0.59829  0.80890  0.89197  1.0000
  H   H35       1.0  0.46437  0.33391  0.10981  1.0000
  H   H36       1.0  0.53563  0.83391  0.89019  1.0000
  C   C29       1.0  0.36070  0.36430  0.03010  1.0000
  C   C30       1.0  0.63930  0.86430  0.96990  1.0000
  C   C31       1.0  0.30420  0.38080  0.06770  1.0000
  C   C32       1.0  0.69580  0.88080  0.93230  1.0000
  H   H37       1.0  0.26073  0.37464  0.09955  1.0000
  H   H38       1.0  0.73927  0.87464  0.90045  1.0000
  C   C33       1.0  0.31480  0.40690  0.05620  1.0000
  C   C34       1.0  0.68520  0.90690  0.94380  1.0000
  H   H39       1.0  0.27676  0.41839  0.08039  1.0000
  H   H40       1.0  0.72324  0.91839  0.91961  1.0000
  C   C35       1.0  0.37170  0.41550  0.01570  1.0000
  C   C36       1.0  0.62830  0.91550  0.98430  1.0000
  H   H41       1.0  0.37690  0.43323  0.00972  1.0000
  H   H42       1.0  0.62310  0.93323  0.99028  1.0000
  C   C37       1.0  0.42800  0.39940  0.97890  1.0000
  C   C38       1.0  0.57200  0.89940  0.02110  1.0000
  H   H43       1.0  0.47206  0.40610  0.94827  1.0000
  H   H44       1.0  0.52794  0.90610  0.05173  1.0000
  C   C39       1.0  0.42030  0.37370  0.98670  1.0000
  C   C40       1.0  0.57970  0.87370  0.01330  1.0000
  C   C41       1.0  0.57490  0.35940  0.94830  1.0000
  C   C42       1.0  0.42510  0.85940  0.05170  1.0000
  H   H45       1.0  0.59225  0.37752  0.94622  1.0000
  H   H46       1.0  0.40775  0.87752  0.05378  1.0000
  H   H47       1.0  0.60345  0.35081  0.90929  1.0000
  H   H48       1.0  0.39655  0.85081  0.09071  1.0000
  C   C43       1.0  0.61440  0.34790  0.01480  1.0000
  C   C44       1.0  0.38560  0.84790  0.98520  1.0000
  C   C45       1.0  0.63990  0.32300  0.01640  1.0000
  C   C46       1.0  0.36010  0.82300  0.98360  1.0000
  H   H49       1.0  0.63577  0.31316  0.97619  1.0000
  H   H50       1.0  0.36423  0.81316  0.02381  1.0000
  C   C47       1.0  0.62060  0.36250  0.07370  1.0000
  C   C48       1.0  0.37940  0.86250  0.92630  1.0000
  H   H51       1.0  0.60471  0.37995  0.07174  1.0000
  H   H52       1.0  0.39529  0.87995  0.92826  1.0000
  C   C49       1.0  0.67170  0.31180  0.07610  1.0000
  C   C50       1.0  0.32830  0.81180  0.92390  1.0000
  H   H53       1.0  0.69073  0.29462  0.07639  1.0000
  H   H54       1.0  0.30927  0.79462  0.92361  1.0000
  C   C51       1.0  0.64910  0.35230  0.13390  1.0000
  C   C52       1.0  0.35090  0.85230  0.86610  1.0000
  H   H55       1.0  0.65150  0.36223  0.17390  1.0000
  H   H56       1.0  0.34850  0.86223  0.82610  1.0000
  C   C53       1.0  0.67550  0.32590  0.13520  1.0000
  C   C54       1.0  0.32450  0.82590  0.86480  1.0000
  C   C55       1.0  0.70700  0.31370  0.19950  1.0000
  C   C56       1.0  0.29300  0.81370  0.80050  1.0000
  H   H57       1.0  0.68144  0.29630  0.20073  1.0000
  H   H58       1.0  0.31856  0.79630  0.79927  1.0000
  H   H59       1.0  0.68002  0.32307  0.23788  1.0000
  H   H60       1.0  0.31998  0.82307  0.76212  1.0000
  C   C57       1.0  0.85900  0.33740  0.23550  1.0000
  C   C58       1.0  0.14100  0.83740  0.76450  1.0000
  C   C59       1.0  0.86490  0.35710  0.18760  1.0000
  C   C60       1.0  0.13510  0.85710  0.81240  1.0000
  H   H61       1.0  0.84405  0.35563  0.14194  1.0000
  H   H62       1.0  0.15595  0.85563  0.85806  1.0000
  C   C61       1.0  0.90600  0.37960  0.21560  1.0000
  C   C62       1.0  0.09400  0.87960  0.78440  1.0000
  H   H63       1.0  0.91479  0.39410  0.18794  1.0000
  H   H64       1.0  0.08521  0.89410  0.81206  1.0000
  C   C63       1.0  0.93260  0.38010  0.28310  1.0000
  C   C64       1.0  0.06740  0.88010  0.71690  1.0000
  H   H65       1.0  0.95901  0.39509  0.30134  1.0000
  H   H66       1.0  0.04099  0.89509  0.69866  1.0000
  C   C65       1.0  0.92240  0.35960  0.32450  1.0000
  C   C66       1.0  0.07760  0.85960  0.67550  1.0000
  H   H67       1.0  0.94135  0.36071  0.37062  1.0000
  H   H68       1.0  0.05865  0.86071  0.62938  1.0000
  C   C67       1.0  0.88450  0.33730  0.29980  1.0000
  C   C68       1.0  0.11550  0.83730  0.70020  1.0000
  C   C69       1.0  0.82860  0.31780  0.40520  1.0000
  C   C70       1.0  0.17140  0.81780  0.59480  1.0000
  H   H69       1.0  0.84565  0.33402  0.42718  1.0000
  H   H70       1.0  0.15435  0.83401  0.57282  1.0000
  H   H71       1.0  0.84620  0.30393  0.43632  1.0000
  H   H72       1.0  0.15380  0.80393  0.56368  1.0000
  C   C71       1.0  0.72500  0.31720  0.39150  1.0000
  C   C72       1.0  0.27500  0.81720  0.60850  1.0000
  C   C73       1.0  0.67410  0.29670  0.40530  1.0000
  C   C74       1.0  0.32590  0.79670  0.59470  1.0000
  H   H73       1.0  0.70354  0.28204  0.42309  1.0000
  H   H74       1.0  0.29646  0.78204  0.57691  1.0000
  C   C75       1.0  0.68010  0.33950  0.36530  1.0000
  C   C76       1.0  0.31990  0.83950  0.63470  1.0000
  H   H75       1.0  0.71485  0.35451  0.35805  1.0000
  H   H76       1.0  0.28515  0.85451  0.64195  1.0000
  C   C77       1.0  0.57670  0.29680  0.39370  1.0000
  C   C78       1.0  0.42330  0.79680  0.60630  1.0000
  H   H77       1.0  0.54086  0.28248  0.40576  1.0000
  H   H78       1.0  0.45914  0.78248  0.59424  1.0000
  C   C79       1.0  0.58430  0.33870  0.35080  1.0000
  C   C80       1.0  0.41570  0.83870  0.64920  1.0000
  H   H79       1.0  0.55441  0.35288  0.33082  1.0000
  H   H80       1.0  0.44559  0.85288  0.66918  1.0000
  C   C81       1.0  0.53310  0.31730  0.36530  1.0000
  C   C82       1.0  0.46690  0.81730  0.63470  1.0000
  C   C83       1.0  0.42650  0.31570  0.35470  1.0000
  C   C84       1.0  0.57350  0.81570  0.64530  1.0000
  H   H81       1.0  0.40727  0.32688  0.31686  1.0000
  H   H82       1.0  0.59273  0.82688  0.68314  1.0000
  H   H83       1.0  0.40880  0.29818  0.34263  1.0000
  H   H84       1.0  0.59120  0.79818  0.65738  1.0000
  Pd  Pd7       1.0  0.53493  0.23023  0.42884  1.0000
  Pd  Pd8       1.0  0.46507  0.73023  0.57116  1.0000
  Pd  Pd9       1.0  0.02031  0.14199  0.19812  1.0000
  Pd  Pd10      1.0  0.97969  0.64199  0.80188  1.0000
  Pd  Pd11      1.0  0.47820  0.05988  0.34957  1.0000
  Pd  Pd12      1.0  0.52180  0.55988  0.65043  1.0000
  Cl  Cl13      1.0  0.67290  0.23196  0.48970  1.0000
  Cl  Cl14      1.0  0.32710  0.73196  0.51030  1.0000
  Cl  Cl15      1.0  0.44510  0.22466  0.52286  1.0000
  Cl  Cl16      1.0  0.55490  0.72466  0.47714  1.0000
  Cl  Cl17      1.0  0.99510  0.15433  0.08770  1.0000
  Cl  Cl18      1.0  0.00490  0.65433  0.91230  1.0000
  Cl  Cl19      1.0  0.05480  0.10168  0.16530  1.0000
  Cl  Cl20      1.0  0.94520  0.60168  0.83470  1.0000
  Cl  Cl21      1.0  0.40280  0.02142  0.35500  1.0000
  Cl  Cl22      1.0  0.59720  0.52142  0.64500  1.0000
  Cl  Cl23      1.0  0.48130  0.06580  0.46630  1.0000
  Cl  Cl24      1.0  0.51870  0.56580  0.53370  1.0000
  N   N13       1.0  0.60450  0.23480  0.33910  1.0000
  N   N14       1.0  0.39550  0.73480  0.66090  1.0000
  H   H85       1.0  0.64709  0.24962  0.34530  1.0000
  H   H86       1.0  0.35291  0.74962  0.65470  1.0000
  N   N15       1.0  0.41670  0.22980  0.36980  1.0000
  N   N16       1.0  0.58330  0.72980  0.63020  1.0000
  H   H87       1.0  0.36943  0.24106  0.39099  1.0000
  H   H88       1.0  0.63057  0.74106  0.60901  1.0000
  N   N17       1.0  0.96820  0.17550  0.23140  1.0000
  N   N18       1.0  0.03180  0.67550  0.76860  1.0000
  H   H89       1.0  0.90642  0.17770  0.20799  1.0000
  H   H90       1.0  0.09358  0.67770  0.79201  1.0000
  N   N19       1.0  0.04340  0.13360  0.29860  1.0000
  N   N20       1.0  0.95660  0.63360  0.70140  1.0000
  H   H91       1.0  0.02053  0.11613  0.30799  1.0000
  H   H92       1.0  0.97947  0.61613  0.69201  1.0000
  N   N21       1.0  0.47930  0.05810  0.24650  1.0000
  N   N22       1.0  0.52070  0.55810  0.75350  1.0000
  H   H93       1.0  0.50396  0.04081  0.23703  1.0000
  H   H94       1.0  0.49604  0.54081  0.76297  1.0000
  N   N23       1.0  0.54960  0.09330  0.33730  1.0000
  N   N24       1.0  0.45040  0.59330  0.66270  1.0000
  H   H95       1.0  0.60176  0.09391  0.37135  1.0000
  H   H96       1.0  0.39824  0.59391  0.62865  1.0000
  C   C85       1.0  0.53460  0.24210  0.28630  1.0000
  C   C86       1.0  0.46540  0.74210  0.71370  1.0000
  C   C87       1.0  0.56280  0.25200  0.22340  1.0000
  C   C88       1.0  0.43720  0.75200  0.77660  1.0000
  H   H97       1.0  0.62681  0.25295  0.21196  1.0000
  H   H98       1.0  0.37319  0.75296  0.78804  1.0000
  C   C89       1.0  0.49630  0.25990  0.18050  1.0000
  C   C90       1.0  0.50370  0.75990  0.81950  1.0000
  H   H99       1.0  0.51491  0.26622  0.13779  1.0000
  H   H100      1.0  0.48509  0.76622  0.86221  1.0000
  C   C91       1.0  0.39830  0.25950  0.19480  1.0000
  C   C92       1.0  0.60170  0.75950  0.80520  1.0000
  H   H101      1.0  0.35258  0.26547  0.16348  1.0000
  H   H102      1.0  0.64742  0.76547  0.83652  1.0000
  C   C93       1.0  0.37530  0.24980  0.25740  1.0000
  C   C94       1.0  0.62470  0.74980  0.74260  1.0000
  H   H103      1.0  0.31157  0.24962  0.26976  1.0000
  H   H104      1.0  0.68843  0.74962  0.73024  1.0000
  C   C95       1.0  0.44080  0.24040  0.30260  1.0000
  C   C96       1.0  0.55920  0.74040  0.69740  1.0000
  C   C97       1.0  0.37680  0.20300  0.36680  1.0000
  C   C98       1.0  0.62320  0.70300  0.63320  1.0000
  H   H105      1.0  0.42306  0.19167  0.34583  1.0000
  H   H106      1.0  0.57694  0.69167  0.65417  1.0000
  H   H107      1.0  0.36626  0.19697  0.41349  1.0000
  H   H108      1.0  0.63374  0.69697  0.58651  1.0000
  C   C99       1.0  0.28610  0.20150  0.32700  1.0000
  C   C100      1.0  0.71390  0.70150  0.67300  1.0000
  C   C101      1.0  0.20730  0.21000  0.35840  1.0000
  C   C102      1.0  0.79270  0.71000  0.64160  1.0000
  H   H109      1.0  0.21071  0.21578  0.40383  1.0000
  H   H110      1.0  0.78929  0.71578  0.59617  1.0000
  C   C103      1.0  0.28250  0.19260  0.26240  1.0000
  C   C104      1.0  0.71750  0.69260  0.73760  1.0000
  H   H111      1.0  0.33849  0.18735  0.24150  1.0000
  H   H112      1.0  0.66151  0.68735  0.75850  1.0000
  C   C105      1.0  0.11850  0.21010  0.32200  1.0000
  C   C106      1.0  0.88150  0.71010  0.67800  1.0000
  H   H113      1.0  0.06406  0.21685  0.34208  1.0000
  H   H114      1.0  0.93594  0.71685  0.65792  1.0000
  C   C107      1.0  0.19750  0.19110  0.22600  1.0000
  C   C108      1.0  0.80250  0.69110  0.77400  1.0000
  H   H115      1.0  0.19676  0.18408  0.18167  1.0000
  H   H116      1.0  0.80324  0.68408  0.81833  1.0000
  C   C109      1.0  0.11520  0.19950  0.25380  1.0000
  C   C110      1.0  0.88480  0.69950  0.74620  1.0000
  C   C111      1.0  0.02310  0.19940  0.21690  1.0000
  C   C112      1.0  0.97690  0.69940  0.78310  1.0000
  H   H117      1.0  0.03369  0.20071  0.16762  1.0000
  H   H118      1.0  0.96631  0.70071  0.83238  1.0000
  H   H119      1.0  0.98625  0.21431  0.23083  1.0000
  H   H120      1.0  0.01375  0.71431  0.76917  1.0000
  C   C113      1.0  0.94770  0.17240  0.30400  1.0000
  C   C114      1.0  0.05230  0.67240  0.69600  1.0000
  C   C115      1.0  0.89160  0.18900  0.33790  1.0000
  C   C116      1.0  0.10840  0.68900  0.66210  1.0000
  H   H121      1.0  0.86652  0.20304  0.31374  1.0000
  H   H122      1.0  0.13348  0.70304  0.68626  1.0000
  C   C117      1.0  0.87030  0.18650  0.40420  1.0000
  C   C118      1.0  0.12970  0.68650  0.59580  1.0000
  H   H123      1.0  0.83245  0.19876  0.42569  1.0000
  H   H124      1.0  0.16754  0.69876  0.57431  1.0000
  C   C119      1.0  0.90110  0.16770  0.43740  1.0000
  C   C120      1.0  0.09890  0.66770  0.56260  1.0000
  H   H125      1.0  0.88305  0.16521  0.48305  1.0000
  H   H126      1.0  0.11695  0.66521  0.51695  1.0000
  C   C121      1.0  0.96670  0.14920  0.40410  1.0000
  C   C122      1.0  0.03330  0.64920  0.59590  1.0000
  H   H127      1.0  0.99570  0.13617  0.43005  1.0000
  H   H128      1.0  0.00430  0.63617  0.56995  1.0000
  C   C123      1.0  0.98520  0.15140  0.33200  1.0000
  C   C124      1.0  0.01480  0.65140  0.66800  1.0000
  C   C125      1.0  0.14050  0.13640  0.32640  1.0000
  C   C126      1.0  0.85950  0.63640  0.67360  1.0000
  H   H129      1.0  0.14056  0.13463  0.37629  1.0000
  H   H130      1.0  0.85944  0.63463  0.62371  1.0000
  H   H131      1.0  0.16550  0.15329  0.31505  1.0000
  H   H132      1.0  0.83450  0.65329  0.68495  1.0000
  C   C127      1.0  0.20090  0.11560  0.29470  1.0000
  C   C128      1.0  0.79910  0.61560  0.70530  1.0000
  C   C129      1.0  0.20460  0.09320  0.32290  1.0000
  C   C130      1.0  0.79540  0.59320  0.67710  1.0000
  H   H133      1.0  0.17387  0.08976  0.36417  1.0000
  H   H134      1.0  0.82613  0.58976  0.63583  1.0000
  C   C131      1.0  0.26300  0.12170  0.23690  1.0000
  C   C132      1.0  0.73700  0.62170  0.76310  1.0000
  H   H135      1.0  0.26809  0.13874  0.22217  1.0000
  H   H136      1.0  0.73191  0.63874  0.77783  1.0000
  C   C133      1.0  0.26000  0.07330  0.28700  1.0000
  C   C134      1.0  0.74000  0.57330  0.71300  1.0000
  H   H137      1.0  0.25414  0.05627  0.30157  1.0000
  H   H138      1.0  0.74586  0.55627  0.69843  1.0000
  C   C135      1.0  0.31000  0.10440  0.20660  1.0000
  C   C136      1.0  0.69000  0.60440  0.79340  1.0000
  H   H139      1.0  0.33942  0.10863  0.16531  1.0000
  H   H140      1.0  0.66058  0.60864  0.83469  1.0000
  C   C137      1.0  0.32000  0.07840  0.23260  1.0000
  C   C138      1.0  0.68000  0.57840  0.76740  1.0000
  C   C139      1.0  0.38750  0.05930  0.20440  1.0000
  C   C140      1.0  0.61250  0.55930  0.79560  1.0000
  H   H141      1.0  0.40187  0.06376  0.15702  1.0000
  H   H142      1.0  0.59813  0.56376  0.84298  1.0000
  H   H143      1.0  0.35762  0.04241  0.20413  1.0000
  H   H144      1.0  0.64238  0.54241  0.79587  1.0000
  C   C141      1.0  0.55240  0.07490  0.22210  1.0000
  C   C142      1.0  0.44760  0.57490  0.77790  1.0000
  C   C143      1.0  0.58600  0.07430  0.15720  1.0000
  C   C144      1.0  0.41400  0.57430  0.84280  1.0000
  H   H145      1.0  0.55765  0.06364  0.12432  1.0000
  H   H146      1.0  0.44235  0.56364  0.87568  1.0000
  C   C145      1.0  0.66040  0.08930  0.13990  1.0000
  C   C146      1.0  0.33960  0.58930  0.86010  1.0000
  H   H147      1.0  0.68412  0.08864  0.09528  1.0000
  H   H148      1.0  0.31588  0.58864  0.90472  1.0000
  C   C147      1.0  0.70070  0.10540  0.18710  1.0000
  C   C148      1.0  0.29930  0.60540  0.81290  1.0000
  H   H149      1.0  0.75422  0.11499  0.17590  1.0000
  H   H150      1.0  0.24578  0.61499  0.82410  1.0000
  C   C149      1.0  0.66260  0.10730  0.25110  1.0000
  C   C150      1.0  0.33740  0.60730  0.74890  1.0000
  H   H151      1.0  0.68605  0.11940  0.28241  1.0000
  H   H152      1.0  0.31395  0.61940  0.71759  1.0000
  C   C151      1.0  0.59050  0.09160  0.26880  1.0000
  C   C152      1.0  0.40950  0.59160  0.73120  1.0000
  C   C153      1.0  0.48250  0.11570  0.35140  1.0000
  C   C154      1.0  0.51750  0.61570  0.64860  1.0000
  H   H153      1.0  0.42715  0.11445  0.32115  1.0000
  H   H154      1.0  0.57285  0.61445  0.67885  1.0000
  H   H155      1.0  0.46103  0.11475  0.39877  1.0000
  H   H156      1.0  0.53897  0.61475  0.60123  1.0000
  C   C155      1.0  0.52990  0.13990  0.34030  1.0000
  C   C156      1.0  0.47010  0.63990  0.65970  1.0000
  C   C157      1.0  0.57490  0.15060  0.39240  1.0000
  C   C158      1.0  0.42510  0.65060  0.60760  1.0000
  H   H157      1.0  0.57804  0.14195  0.43455  1.0000
  H   H158      1.0  0.42196  0.64196  0.56545  1.0000
  C   C159      1.0  0.51860  0.15320  0.27790  1.0000
  C   C160      1.0  0.48140  0.65320  0.72210  1.0000
  H   H159      1.0  0.48088  0.14651  0.24219  1.0000
  H   H160      1.0  0.51912  0.64651  0.75782  1.0000
  C   C161      1.0  0.61780  0.17430  0.38610  1.0000
  C   C162      1.0  0.38220  0.67430  0.61390  1.0000
  H   H161      1.0  0.64892  0.18125  0.42447  1.0000
  H   H162      1.0  0.35108  0.68125  0.57553  1.0000
  C   C163      1.0  0.56490  0.17620  0.27090  1.0000
  C   C164      1.0  0.43510  0.67620  0.72910  1.0000
  H   H163      1.0  0.56282  0.18475  0.22861  1.0000
  H   H164      1.0  0.43718  0.68475  0.77139  1.0000
  C   C165      1.0  0.61670  0.18750  0.32820  1.0000
  C   C166      1.0  0.38330  0.68750  0.67180  1.0000
  C   C167      1.0  0.66620  0.21220  0.31940  1.0000
  C   C168      1.0  0.33380  0.71220  0.68060  1.0000
  H   H165      1.0  0.68484  0.21401  0.27164  1.0000
  H   H166      1.0  0.31516  0.71401  0.72836  1.0000
  H   H167      1.0  0.72355  0.21229  0.34786  1.0000
  H   H168      1.0  0.27645  0.71229  0.65214  1.0000
  Pd  Pd13      1.0  0.25928  0.29667  0.57250  1.0000
  Pd  Pd14      1.0  0.74072  0.79667  0.42750  1.0000
  Pd  Pd15      1.0  0.07317  0.29299  0.02213  1.0000
  Pd  Pd16      1.0  0.92683  0.79299  0.97787  1.0000
  Pd  Pd17      1.0  0.64913  0.33030  0.69853  1.0000
  Pd  Pd18      1.0  0.35087  0.83030  0.30147  1.0000
  Cl  Cl25      1.0  0.23310  0.33965  0.56885  1.0000
  Cl  Cl26      1.0  0.76690  0.83965  0.43115  1.0000
  Cl  Cl27      1.0  0.41916  0.30063  0.56995  1.0000
  Cl  Cl28      1.0  0.58084  0.80063  0.43005  1.0000
  Cl  Cl29      1.0  0.13930  0.33130  0.99608  1.0000
  Cl  Cl30      1.0  0.86070  0.83130  0.00392  1.0000
  Cl  Cl31      1.0  0.99780  0.30906  0.11544  1.0000
  Cl  Cl32      1.0  0.00220  0.80906  0.88456  1.0000
  Cl  Cl33      1.0  0.67710  0.36290  0.77440  1.0000
  Cl  Cl34      1.0  0.32290  0.86290  0.22560  1.0000
  Cl  Cl35      1.0  0.61640  0.35782  0.61140  1.0000
  Cl  Cl36      1.0  0.38360  0.85782  0.38860  1.0000
  N   N25       1.0  0.12010  0.29040  0.56390  1.0000
  N   N26       1.0  0.87990  0.79040  0.43610  1.0000
  H   H169      1.0  0.09542  0.30117  0.52611  1.0000
  H   H170      1.0  0.90457  0.80117  0.47389  1.0000
  N   N27       1.0  0.27070  0.25840  0.57880  1.0000
  N   N28       1.0  0.72930  0.75840  0.42120  1.0000
  H   H171      1.0  0.31762  0.25334  0.54432  1.0000
  H   H172      1.0  0.68238  0.75334  0.45568  1.0000
  N   N29       1.0  0.14040  0.27620  0.94260  1.0000
  N   N30       1.0  0.85960  0.77620  0.05740  1.0000
  H   H173      1.0  0.20774  0.28102  0.94593  1.0000
  H   H174      1.0  0.79226  0.78102  0.05407  1.0000
  N   N31       1.0  0.01920  0.25830  0.03900  1.0000
  N   N32       1.0  0.98080  0.75830  0.96100  1.0000
  H   H175      1.0  0.03402  0.25391  0.08721  1.0000
  H   H176      1.0  0.96598  0.75391  0.91279  1.0000
  N   N33       1.0  0.68220  0.30330  0.77100  1.0000
  N   N34       1.0  0.31780  0.80330  0.22900  1.0000
  H   H177      1.0  0.65344  0.30830  0.81485  1.0000
  H   H178      1.0  0.34656  0.80830  0.18515  1.0000
  N   N35       1.0  0.61600  0.30050  0.64110  1.0000
  N   N36       1.0  0.38400  0.80050  0.35890  1.0000
  H   H179      1.0  0.54998  0.30350  0.62642  1.0000
  H   H180      1.0  0.45002  0.80350  0.37358  1.0000
  C   C169      1.0  0.10820  0.26340  0.54370  1.0000
  C   C170      1.0  0.89180  0.76340  0.45630  1.0000
  C   C171      1.0  0.02810  0.25490  0.51150  1.0000
  C   C172      1.0  0.97190  0.75490  0.48850  1.0000
  H   H181      1.0  0.97895  0.26640  0.50147  1.0000
  H   H182      1.0  0.02105  0.76640  0.49853  1.0000
  C   C173      1.0  0.01910  0.22930  0.49350  1.0000
  C   C174      1.0  0.98090  0.72930  0.50650  1.0000
  H   H183      1.0  0.96550  0.22362  0.46924  1.0000
  H   H184      1.0  0.03450  0.72362  0.53076  1.0000
  C   C175      1.0  0.09090  0.21220  0.51210  1.0000
  C   C176      1.0  0.90910  0.71220  0.48790  1.0000
  H   H185      1.0  0.08290  0.19465  0.50445  1.0000
  H   H186      1.0  0.91710  0.69466  0.49555  1.0000
  C   C177      1.0  0.17320  0.22120  0.54170  1.0000
  C   C178      1.0  0.82680  0.72120  0.45830  1.0000
  H   H187      1.0  0.22281  0.20991  0.55229  1.0000
  H   H188      1.0  0.77719  0.70991  0.44771  1.0000
  C   C179      1.0  0.18190  0.24770  0.55580  1.0000
  C   C180      1.0  0.81810  0.74770  0.44420  1.0000
  C   C181      1.0  0.30670  0.24790  0.64610  1.0000
  C   C182      1.0  0.69330  0.74790  0.35390  1.0000
  H   H189      1.0  0.30395  0.22926  0.64457  1.0000
  H   H190      1.0  0.69605  0.72926  0.35543  1.0000
  H   H191      1.0  0.37292  0.25284  0.65212  1.0000
  H   H192      1.0  0.62708  0.75284  0.34788  1.0000
  C   C183      1.0  0.25370  0.25690  0.70530  1.0000
  C   C184      1.0  0.74630  0.75690  0.29470  1.0000
  C   C185      1.0  0.28820  0.27720  0.74340  1.0000
  C   C186      1.0  0.71180  0.77720  0.25660  1.0000
  H   H193      1.0  0.34672  0.28438  0.73225  1.0000
  H   H194      1.0  0.65328  0.78438  0.26775  1.0000
  C   C187      1.0  0.16710  0.24570  0.72200  1.0000
  C   C188      1.0  0.83290  0.74570  0.27800  1.0000
  H   H195      1.0  0.14221  0.23189  0.69685  1.0000
  H   H196      1.0  0.85779  0.73189  0.30315  1.0000
  C   C189      1.0  0.23730  0.28730  0.79860  1.0000
  C   C190      1.0  0.76270  0.78730  0.20140  1.0000
  H   H197      1.0  0.26102  0.30121  0.82385  1.0000
  H   H198      1.0  0.73898  0.80121  0.17615  1.0000
  C   C191      1.0  0.11940  0.25600  0.77800  1.0000
  C   C192      1.0  0.88060  0.75600  0.22200  1.0000
  H   H199      1.0  0.06199  0.24854  0.79070  1.0000
  H   H200      1.0  0.93801  0.74854  0.20930  1.0000
  C   C193      1.0  0.15220  0.27630  0.81490  1.0000
  C   C194      1.0  0.84780  0.77630  0.18510  1.0000
  C   C195      1.0  0.10180  0.28670  0.87670  1.0000
  C   C196      1.0  0.89820  0.78670  0.12330  1.0000
  H   H201      1.0  0.10763  0.30535  0.87725  1.0000
  H   H202      1.0  0.89237  0.80535  0.12275  1.0000
  H   H203      1.0  0.03471  0.28252  0.87285  1.0000
  H   H204      1.0  0.96529  0.78252  0.12715  1.0000
  C   C197      1.0  0.13440  0.24930  0.95040  1.0000
  C   C198      1.0  0.86560  0.74930  0.04960  1.0000
  C   C199      1.0  0.19200  0.23250  0.91660  1.0000
  C   C200      1.0  0.80800  0.73250  0.08340  1.0000
  H   H205      1.0  0.23744  0.23896  0.88664  1.0000
  H   H206      1.0  0.76256  0.73896  0.11336  1.0000
  C   C201      1.0  0.18490  0.20620  0.92570  1.0000
  C   C202      1.0  0.81510  0.70620  0.07430  1.0000
  H   H207      1.0  0.22823  0.19536  0.90432  1.0000
  H   H208      1.0  0.77177  0.69536  0.09568  1.0000
  C   C203      1.0  0.11650  0.19610  0.96460  1.0000
  C   C204      1.0  0.88350  0.69610  0.03540  1.0000
  H   H209      1.0  0.10569  0.17841  0.96553  1.0000
  H   H210      1.0  0.89431  0.67841  0.03447  1.0000
  C   C205      1.0  0.06000  0.21350  0.00530  1.0000
  C   C206      1.0  0.94000  0.71350  0.99470  1.0000
  H   H211      1.0  0.01687  0.20731  0.03733  1.0000
  H   H212      1.0  0.98313  0.70731  0.96267  1.0000
  C   C207      1.0  0.07210  0.23970  0.99510  1.0000
  C   C208      1.0  0.92790  0.73970  0.00490  1.0000
  C   C209      1.0  0.91260  0.25580  0.02960  1.0000
  C   C210      1.0  0.08740  0.75580  0.97040  1.0000
  H   H213      1.0  0.89485  0.23771  0.02975  1.0000
  H   H214      1.0  0.10515  0.73771  0.97025  1.0000
  H   H215      1.0  0.88071  0.26420  0.06760  1.0000
  H   H216      1.0  0.11929  0.76420  0.93240  1.0000
  C   C211      1.0  0.88290  0.26760  0.96440  1.0000
  C   C212      1.0  0.11710  0.76760  0.03560  1.0000
  C   C213      1.0  0.85430  0.29320  0.96380  1.0000
  C   C214      1.0  0.14570  0.79320  0.03620  1.0000
  H   H217      1.0  0.85595  0.30292  0.00427  1.0000
  H   H218      1.0  0.14405  0.80292  0.99573  1.0000
  C   C215      1.0  0.88230  0.25380  0.90250  1.0000
  C   C216      1.0  0.11770  0.75380  0.09750  1.0000
  H   H219      1.0  0.90261  0.23676  0.90172  1.0000
  H   H220      1.0  0.09739  0.73676  0.09828  1.0000
  C   C217      1.0  0.82380  0.30400  0.90300  1.0000
  C   C218      1.0  0.17620  0.80400  0.09700  1.0000
  H   H221      1.0  0.80491  0.32124  0.90265  1.0000
  H   H222      1.0  0.19509  0.82124  0.09735  1.0000
  C   C219      1.0  0.85170  0.26560  0.84280  1.0000
  C   C220      1.0  0.14830  0.76560  0.15720  1.0000
  H   H223      1.0  0.85226  0.25660  0.80132  1.0000
  H   H224      1.0  0.14774  0.75660  0.19868  1.0000
  C   C221      1.0  0.82030  0.29060  0.84380  1.0000
  C   C222      1.0  0.17970  0.79060  0.15620  1.0000
  C   C223      1.0  0.78710  0.30330  0.77970  1.0000
  C   C224      1.0  0.21290  0.80330  0.22030  1.0000
  H   H225      1.0  0.81488  0.29450  0.74052  1.0000
  H   H226      1.0  0.18512  0.79450  0.25948  1.0000
  H   H227      1.0  0.80977  0.32091  0.77950  1.0000
  H   H228      1.0  0.19023  0.82091  0.22050  1.0000
  C   C225      1.0  0.63880  0.27760  0.74700  1.0000
  C   C226      1.0  0.36120  0.77760  0.25300  1.0000
  C   C227      1.0  0.63360  0.25960  0.79490  1.0000
  C   C228      1.0  0.36640  0.75960  0.20510  1.0000
  H   H229      1.0  0.65356  0.26225  0.84039  1.0000
  H   H230      1.0  0.34644  0.76225  0.15961  1.0000
  C   C229      1.0  0.59580  0.23640  0.77160  1.0000
  C   C230      1.0  0.40420  0.73640  0.22840  1.0000
  H   H231      1.0  0.59139  0.22213  0.80059  1.0000
  H   H232      1.0  0.40862  0.72213  0.19941  1.0000
  C   C231      1.0  0.56460  0.23530  0.70210  1.0000
  C   C232      1.0  0.43540  0.73530  0.29790  1.0000
  H   H233      1.0  0.53658  0.22022  0.68566  1.0000
  H   H234      1.0  0.46342  0.72022  0.31434  1.0000
  C   C233      1.0  0.57350  0.25440  0.66110  1.0000
  C   C234      1.0  0.42650  0.75440  0.33890  1.0000
  H   H235      1.0  0.55377  0.25283  0.61518  1.0000
  H   H236      1.0  0.44623  0.75283  0.38482  1.0000
  C   C235      1.0  0.61220  0.27760  0.68410  1.0000
  C   C236      1.0  0.38780  0.77760  0.31590  1.0000
  C   C237      1.0  0.66780  0.29610  0.57660  1.0000
  C   C238      1.0  0.33220  0.79610  0.42340  1.0000
  H   H237      1.0  0.65265  0.30964  0.54387  1.0000
  H   H238      1.0  0.34734  0.80964  0.45613  1.0000
  H   H239      1.0  0.64805  0.27976  0.55647  1.0000
  H   H240      1.0  0.35195  0.77976  0.44353  1.0000
  C   C239      1.0  0.77400  0.29560  0.59060  1.0000
  C   C240      1.0  0.22600  0.79560  0.40940  1.0000
  C   C241      1.0  0.82460  0.31780  0.57760  1.0000
  C   C242      1.0  0.17540  0.81780  0.42240  1.0000
  H   H241      1.0  0.79336  0.33248  0.56179  1.0000
  H   H242      1.0  0.20664  0.83248  0.43821  1.0000
  C   C243      1.0  0.81700  0.27440  0.61640  1.0000
  C   C244      1.0  0.18300  0.77440  0.38360  1.0000
  H   H243      1.0  0.78156  0.25955  0.62392  1.0000
  H   H244      1.0  0.21844  0.75955  0.37608  1.0000
  C   C245      1.0  0.92210  0.31800  0.58830  1.0000
  C   C246      1.0  0.07790  0.81800  0.41170  1.0000
  H   H245      1.0  0.95794  0.33241  0.57671  1.0000
  H   H246      1.0  0.04206  0.83241  0.42329  1.0000
  C   C247      1.0  0.91300  0.27470  0.63160  1.0000
  C   C248      1.0  0.08700  0.77470  0.36840  1.0000
  H   H247      1.0  0.94243  0.26041  0.65178  1.0000
  H   H248      1.0  0.05757  0.76041  0.34822  1.0000
  C   C249      1.0  0.96490  0.29660  0.61640  1.0000
  C   C250      1.0  0.03510  0.79660  0.38360  1.0000
  C   C251      1.0  0.06850  0.29750  0.62770  1.0000
  C   C252      1.0  0.93150  0.79750  0.37230  1.0000
  H   H249      1.0  0.08622  0.28578  0.66465  1.0000
  H   H250      1.0  0.91378  0.78578  0.33535  1.0000
  H   H251      1.0  0.08679  0.31481  0.64181  1.0000
  H   H252      1.0  0.91321  0.81481  0.35819  1.0000
  Pd  Pd19      1.0  0.96618  0.38357  0.55614  1.0000
  Pd  Pd20      1.0  0.03382  0.88357  0.44386  1.0000
  Pd  Pd21      1.0  0.48907  0.46802  0.79270  1.0000
  Pd  Pd22      1.0  0.51093  0.96802  0.20730  1.0000
  Pd  Pd23      1.0  0.02380  0.55303  0.64971  1.0000
  Pd  Pd24      1.0  0.97620  0.05303  0.35029  1.0000
  Cl  Cl37      1.0  0.82870  0.38203  0.49480  1.0000
  Cl  Cl38      1.0  0.17130  0.88203  0.50520  1.0000
  Cl  Cl39      1.0  0.05570  0.38929  0.46194  1.0000
  Cl  Cl40      1.0  0.94430  0.88929  0.53806  1.0000
  Cl  Cl41      1.0  0.52770  0.45410  0.90130  1.0000
  Cl  Cl42      1.0  0.47230  0.95410  0.09870  1.0000
  Cl  Cl43      1.0  0.45330  0.50826  0.83000  1.0000
  Cl  Cl44      1.0  0.54670  0.00826  0.17000  1.0000
  Cl  Cl45      1.0  0.09820  0.59187  0.65500  1.0000
  Cl  Cl46      1.0  0.90180  0.09187  0.34500  1.0000
  Cl  Cl47      1.0  0.02120  0.54940  0.53170  1.0000
  Cl  Cl48      1.0  0.97880  0.04940  0.46830  1.0000
  N   N37       1.0  0.89740  0.37940  0.64490  1.0000
  N   N38       1.0  0.10260  0.87940  0.35510  1.0000
  H   H253      1.0  0.85501  0.36456  0.63827  1.0000
  H   H254      1.0  0.14499  0.86456  0.36173  1.0000
  N   N39       1.0  0.08230  0.38310  0.61770  1.0000
  N   N40       1.0  0.91770  0.88310  0.38230  1.0000
  H   H255      1.0  0.12918  0.37155  0.59695  1.0000
  H   H256      1.0  0.87082  0.87155  0.40305  1.0000
  N   N41       1.0  0.53420  0.43590  0.75380  1.0000
  N   N42       1.0  0.46580  0.93590  0.24620  1.0000
  H   H257      1.0  0.59665  0.43349  0.77596  1.0000
  H   H258      1.0  0.40335  0.93349  0.22404  1.0000
  N   N43       1.0  0.46440  0.47620  0.69140  1.0000
  N   N44       1.0  0.53560  0.97620  0.30860  1.0000
  H   H259      1.0  0.49006  0.49358  0.68408  1.0000
  H   H260      1.0  0.50994  0.99358  0.31592  1.0000
  N   N45       1.0  0.01590  0.55120  0.74120  1.0000
  N   N46       1.0  0.98410  0.05120  0.25880  1.0000
  H   H261      1.0  0.98783  0.56797  0.75200  1.0000
  H   H262      1.0  0.01217  0.06797  0.24800  1.0000
  N   N47       1.0  0.95450  0.51920  0.64950  1.0000
  N   N48       1.0  0.04550  0.01920  0.35050  1.0000
  H   H263      1.0  0.90597  0.51790  0.61281  1.0000
  H   H264      1.0  0.09403  0.01790  0.38719  1.0000
  C   C253      1.0  0.96500  0.37180  0.69830  1.0000
  C   C254      1.0  0.03500  0.87180  0.30170  1.0000
  C   C255      1.0  0.93840  0.36260  0.76060  1.0000
  C   C256      1.0  0.06160  0.86260  0.23940  1.0000
  H   H265      1.0  0.87441  0.36315  0.77226  1.0000
  H   H266      1.0  0.12559  0.86315  0.22774  1.0000
  C   C257      1.0  0.00330  0.35230  0.80750  1.0000
  C   C258      1.0  0.99670  0.85230  0.19250  1.0000
  H   H267      1.0  0.98363  0.34490  0.84869  1.0000
  H   H268      1.0  0.01637  0.84490  0.15131  1.0000
  C   C259      1.0  0.09730  0.35340  0.79090  1.0000
  C   C260      1.0  0.90270  0.85340  0.20910  1.0000
  H   H269      1.0  0.14307  0.34723  0.82186  1.0000
  H   H270      1.0  0.85693  0.84723  0.17814  1.0000
  C   C261      1.0  0.12600  0.36400  0.72650  1.0000
  C   C262      1.0  0.87400  0.86400  0.27350  1.0000
  H   H271      1.0  0.19027  0.36471  0.71547  1.0000
  H   H272      1.0  0.80973  0.86471  0.28453  1.0000
  C   C263      1.0  0.05860  0.37320  0.68070  1.0000
  C   C264      1.0  0.94140  0.87320  0.31930  1.0000
  C   C265      1.0  0.12290  0.40940  0.61890  1.0000
  C   C266      1.0  0.87710  0.90940  0.38110  1.0000
  H   H273      1.0  0.07776  0.42109  0.63969  1.0000
  H   H274      1.0  0.92224  0.92109  0.36031  1.0000
  H   H275      1.0  0.13360  0.41508  0.57194  1.0000
  H   H276      1.0  0.86640  0.91508  0.42806  1.0000
  C   C267      1.0  0.21820  0.41040  0.66020  1.0000
  C   C268      1.0  0.78180  0.91040  0.33980  1.0000
  C   C269      1.0  0.29580  0.40270  0.62810  1.0000
  C   C270      1.0  0.70420  0.90270  0.37190  1.0000
  H   H277      1.0  0.29174  0.39742  0.58230  1.0000
  H   H278      1.0  0.70826  0.89742  0.41770  1.0000
  C   C271      1.0  0.22490  0.41910  0.72680  1.0000
  C   C272      1.0  0.77510  0.91910  0.27320  1.0000
  H   H279      1.0  0.17032  0.42459  0.74915  1.0000
  H   H280      1.0  0.82968  0.92459  0.25085  1.0000
  C   C273      1.0  0.38270  0.40260  0.66200  1.0000
  C   C274      1.0  0.61730  0.90260  0.33800  1.0000
  H   H281      1.0  0.43707  0.39670  0.64013  1.0000
  H   H282      1.0  0.56293  0.89670  0.35987  1.0000
  C   C275      1.0  0.30670  0.41970  0.75960  1.0000
  C   C276      1.0  0.69330  0.91970  0.24040  1.0000
  H   H283      1.0  0.30969  0.42589  0.80468  1.0000
  H   H284      1.0  0.69031  0.92589  0.19532  1.0000
  C   C277      1.0  0.38740  0.41150  0.72900  1.0000
  C   C278      1.0  0.61260  0.91150  0.27100  1.0000
  C   C279      1.0  0.47890  0.41180  0.77390  1.0000
  C   C280      1.0  0.52110  0.91180  0.22610  1.0000
  H   H285      1.0  0.46323  0.41225  0.82247  1.0000
  H   H286      1.0  0.53677  0.91225  0.17753  1.0000
  H   H287      1.0  0.51654  0.39646  0.76525  1.0000
  H   H288      1.0  0.48346  0.89646  0.23475  1.0000
  C   C281      1.0  0.55540  0.43950  0.68410  1.0000
  C   C282      1.0  0.44460  0.93950  0.31590  1.0000
  C   C283      1.0  0.61140  0.42170  0.64810  1.0000
  C   C284      1.0  0.38860  0.92170  0.35190  1.0000
  H   H289      1.0  0.63844  0.40750  0.67019  1.0000
  H   H290      1.0  0.36156  0.90750  0.32981  1.0000
  C   C285      1.0  0.62460  0.42600  0.57940  1.0000
  C   C286      1.0  0.37540  0.92600  0.42060  1.0000
  H   H291      1.0  0.65783  0.41404  0.55333  1.0000
  H   H292      1.0  0.34217  0.91404  0.44667  1.0000
  C   C287      1.0  0.59010  0.44740  0.54920  1.0000
  C   C288      1.0  0.40990  0.94740  0.45080  1.0000
  H   H293      1.0  0.60420  0.45031  0.50303  1.0000
  H   H294      1.0  0.39580  0.95031  0.49697  1.0000
  C   C289      1.0  0.53500  0.46510  0.58290  1.0000
  C   C290      1.0  0.46500  0.96510  0.41710  1.0000
  H   H295      1.0  0.50942  0.47929  0.55998  1.0000
  H   H296      1.0  0.49058  0.97929  0.44002  1.0000
  C   C291      1.0  0.51810  0.46070  0.65630  1.0000
  C   C292      1.0  0.48190  0.96070  0.34370  1.0000
  C   C293      1.0  0.35590  0.47850  0.68080  1.0000
  C   C294      1.0  0.64410  0.97850  0.31920  1.0000
  H   H297      1.0  0.34658  0.47778  0.63114  1.0000
  H   H298      1.0  0.65342  0.97778  0.36886  1.0000
  H   H299      1.0  0.33093  0.46241  0.69839  1.0000
  H   H300      1.0  0.66907  0.96241  0.30161  1.0000
  C   C295      1.0  0.29780  0.49520  0.70040  1.0000
  C   C296      1.0  0.70220  0.99520  0.29960  1.0000
  C   C297      1.0  0.29660  0.52050  0.68080  1.0000
  C   C298      1.0  0.70340  0.02050  0.31920  1.0000
  H   H301      1.0  0.33932  0.52631  0.64792  1.0000
  H   H302      1.0  0.66068  0.02631  0.35208  1.0000
  C   C299      1.0  0.23580  0.48860  0.75510  1.0000
  C   C300      1.0  0.76420  0.98860  0.24490  1.0000
  H   H303      1.0  0.23844  0.47199  0.77331  1.0000
  H   H304      1.0  0.76156  0.97199  0.22669  1.0000
  C   C301      1.0  0.23340  0.53760  0.70890  1.0000
  C   C302      1.0  0.76660  0.03760  0.29110  1.0000
  H   H305      1.0  0.23263  0.55455  0.69341  1.0000
  H   H306      1.0  0.76737  0.05455  0.30659  1.0000
  C   C303      1.0  0.17450  0.50520  0.78090  1.0000
  C   C304      1.0  0.82550  0.00520  0.21910  1.0000
  H   H307      1.0  0.13203  0.50011  0.81470  1.0000
  H   H308      1.0  0.86797  0.00011  0.18530  1.0000
  C   C305      1.0  0.17430  0.53060  0.75680  1.0000
  C   C306      1.0  0.82570  0.03060  0.24320  1.0000
  C   C307      1.0  0.10100  0.55130  0.78640  1.0000
  C   C308      1.0  0.89900  0.05130  0.21360  1.0000
  H   H309      1.0  0.08382  0.54681  0.83325  1.0000
  H   H310      1.0  0.91618  0.04681  0.16675  1.0000
  H   H311      1.0  0.12969  0.56830  0.78697  1.0000
  H   H312      1.0  0.87031  0.06831  0.21303  1.0000
  C   C309      1.0  0.94950  0.53430  0.77080  1.0000
  C   C310      1.0  0.05050  0.03430  0.22920  1.0000
  C   C311      1.0  0.91050  0.53550  0.83250  1.0000
  C   C312      1.0  0.08950  0.03550  0.16750  1.0000
  H   H313      1.0  0.93402  0.54697  0.86563  1.0000
  H   H314      1.0  0.06598  0.04697  0.13437  1.0000
  C   C313      1.0  0.83300  0.51930  0.84770  1.0000
  C   C314      1.0  0.16700  0.01930  0.15230  1.0000
  H   H315      1.0  0.80667  0.51927  0.89157  1.0000
  H   H316      1.0  0.19333  0.01927  0.10843  1.0000
  C   C315      1.0  0.79690  0.50390  0.79730  1.0000
  C   C316      1.0  0.20310  0.00390  0.20270  1.0000
  H   H317      1.0  0.74385  0.49377  0.80634  1.0000
  H   H318      1.0  0.25615  0.99377  0.19366  1.0000
  C   C317      1.0  0.83590  0.50300  0.73480  1.0000
  C   C318      1.0  0.16410  0.00300  0.26520  1.0000
  H   H319      1.0  0.81105  0.49201  0.70104  1.0000
  H   H320      1.0  0.18895  0.99201  0.29896  1.0000
  C   C319      1.0  0.91430  0.51860  0.72050  1.0000
  C   C320      1.0  0.08570  0.01860  0.27950  1.0000
  C   C321      1.0  0.03040  0.49890  0.64520  1.0000
  C   C322      1.0  0.96960  0.99890  0.35480  1.0000
  H   H321      1.0  0.07598  0.50099  0.68286  1.0000
  H   H322      1.0  0.92402  0.00099  0.31714  1.0000
  H   H323      1.0  0.06400  0.50049  0.60199  1.0000
  H   H324      1.0  0.93600  0.00049  0.39801  1.0000
  C   C323      1.0  0.98170  0.47150  0.64970  1.0000
  C   C324      1.0  0.01830  0.97150  0.35030  1.0000
  C   C325      1.0  0.93350  0.46300  0.59930  1.0000
  C   C326      1.0  0.06650  0.96300  0.40070  1.0000
  H   H325      1.0  0.92828  0.47293  0.55935  1.0000
  H   H326      1.0  0.07172  0.97293  0.44065  1.0000
  C   C327      1.0  0.98030  0.45980  0.71020  1.0000
  C   C328      1.0  0.01970  0.95980  0.28980  1.0000
  H   H327      1.0  0.01007  0.46683  0.74905  1.0000
  H   H328      1.0  0.98993  0.96683  0.25095  1.0000
  C   C329      1.0  0.88610  0.43830  0.60210  1.0000
  C   C330      1.0  0.11390  0.93830  0.39790  1.0000
  H   H329      1.0  0.85491  0.43119  0.56396  1.0000
  H   H330      1.0  0.14509  0.93119  0.43604  1.0000
  C   C331      1.0  0.93120  0.43580  0.71320  1.0000
  C   C332      1.0  0.06880  0.93580  0.28680  1.0000
  H   H331      1.0  0.92976  0.42675  0.75464  1.0000
  H   H332      1.0  0.07024  0.92675  0.24536  1.0000
  C   C333      1.0  0.89010  0.42690  0.66110  1.0000
  C   C334      1.0  0.10990  0.92690  0.33890  1.0000
  C   C335      1.0  0.83600  0.40080  0.66540  1.0000
  C   C336      1.0  0.16400  0.90080  0.33460  1.0000
  H   H333      1.0  0.81468  0.39810  0.71226  1.0000
  H   H334      1.0  0.18532  0.89810  0.28774  1.0000
  H   H335      1.0  0.78024  0.40137  0.63527  1.0000
  H   H336      1.0  0.21976  0.90137  0.36473  1.0000
  Cl  Cl49      1.0  0.58560  0.25258  0.97330  0.6020
  Cl  Cl50      1.0  0.41440  0.75258  0.02670  0.6020
  C   C337      1.0  0.72700  0.19920  0.07080  0.6020
  C   C338      1.0  0.27300  0.69920  0.92920  0.6020
  C   C339      1.0  0.66200  0.21950  0.05290  0.6020
  C   C340      1.0  0.33800  0.71950  0.94710  0.6020
  H   H337      1.0  0.62185  0.22642  0.08589  0.6020
  H   H338      1.0  0.37815  0.72642  0.91412  0.6020
  C   C341      1.0  0.66020  0.22770  0.99140  0.6020
  C   C342      1.0  0.33980  0.72770  0.00860  0.6020
  C   C343      1.0  0.71100  0.21690  0.93990  0.6020
  C   C344      1.0  0.28900  0.71690  0.06010  0.6020
  H   H339      1.0  0.70236  0.22199  0.89423  0.6020
  H   H340      1.0  0.29764  0.72199  0.10577  0.6020
  C   C345      1.0  0.77600  0.19820  0.95730  0.6020
  C   C346      1.0  0.22400  0.69820  0.04270  0.6020
  H   H341      1.0  0.81571  0.19182  0.92316  0.6020
  H   H342      1.0  0.18429  0.69182  0.07684  0.6020
  C   C347      1.0  0.78480  0.18960  0.01680  0.6020
  C   C348      1.0  0.21520  0.68960  0.98320  0.6020
  H   H343      1.0  0.82924  0.17668  0.02625  0.6020
  H   H344      1.0  0.17076  0.67668  0.97375  0.6020
  C   C349      1.0  0.73200  0.19080  0.14120  0.6020
  C   C350      1.0  0.26800  0.69080  0.85880  0.6020
  H   H345      1.0  0.67908  0.19861  0.16650  0.6020
  H   H346      1.0  0.32092  0.69861  0.83350  0.6020
  C   C351      1.0  0.72200  0.16200  0.14400  0.6020
  C   C352      1.0  0.27800  0.66200  0.85600  0.6020
  H   H347      1.0  0.75215  0.15571  0.18584  0.6020
  H   H348      1.0  0.24785  0.65571  0.81416  0.6020
  H   H349      1.0  0.75131  0.15443  0.10493  0.6020
  H   H350      1.0  0.24869  0.65443  0.89507  0.6020
  H   H351      1.0  0.65548  0.15750  0.14467  0.6020
  H   H352      1.0  0.34452  0.65750  0.85533  0.6020
  O   O1        1.0  0.81750  0.19780  0.17330  0.6020
  O   O2        1.0  0.18250  0.69780  0.82670  0.6020
  O   O3        1.0  0.43200  0.20660  0.88500  0.3980
  O   O4        1.0  0.56800  0.70660  0.11500  0.3980
  O   O5        1.0  0.68800  0.24540  0.08300  0.3980
  O   O6        1.0  0.31200  0.74540  0.91700  0.3980
  C   C353      1.0  0.64200  0.42690  0.14230  0.5000
  C   C354      1.0  0.35800  0.92690  0.85770  0.5000
  C   C355      1.0  0.55000  0.41050  0.31790  0.5000
  C   C356      1.0  0.45000  0.91050  0.68210  0.5000
  C   C357      1.0  0.54900  0.41680  0.24950  0.5000
  C   C358      1.0  0.45100  0.91680  0.75050  0.5000
  C   C359      1.0  0.63500  0.41970  0.21560  0.5000
  C   C360      1.0  0.36500  0.91970  0.78440  0.5000
  C   C361      1.0  0.71800  0.41670  0.25000  0.5000
  C   C362      1.0  0.28200  0.91670  0.75000  0.5000
  C   C363      1.0  0.71900  0.41050  0.32000  0.5000
  C   C364      1.0  0.28100  0.91050  0.68000  0.5000
  C   C365      1.0  0.63500  0.40750  0.35350  0.5000
  C   C366      1.0  0.36500  0.90750  0.64650  0.5000
  N   N49       1.0  0.55900  0.39900  0.27700  0.5000
  N   N50       1.0  0.44100  0.89900  0.72300  0.5000
  C   C367      1.0  0.62200  0.40510  0.30500  0.5000
  C   C368      1.0  0.37800  0.90510  0.69500  0.5000
  C   C369      1.0  0.68100  0.41090  0.36800  0.5000
  C   C370      1.0  0.31900  0.91090  0.63200  0.5000
  H   H353      1.0  0.72556  0.42426  0.35786  0.5000
  H   H354      1.0  0.27444  0.92426  0.64214  0.5000
  H   H355      1.0  0.71397  0.39566  0.38252  0.5000
  H   H356      1.0  0.28603  0.89566  0.61748  0.5000
  H   H357      1.0  0.63955  0.41656  0.40431  0.5000
  H   H358      1.0  0.36045  0.91656  0.59569  0.5000
  Cl  Cl51      1.0  0.30100  0.15610  0.48370  0.5000
  Cl  Cl52      1.0  0.69900  0.65610  0.51630  0.5000
  C   C371      1.0  0.11000  0.11060  0.55500  0.5000
  C   C372      1.0  0.89000  0.61060  0.44500  0.5000
  C   C373      1.0  0.15800  0.13210  0.53520  0.5000
  C   C374      1.0  0.84200  0.63210  0.46480  0.5000
  H   H359      1.0  0.13203  0.14843  0.54102  0.5000
  H   H360      1.0  0.86797  0.64843  0.45898  0.5000
  C   C375      1.0  0.24300  0.12910  0.50770  0.5000
  C   C376      1.0  0.75700  0.62910  0.49230  0.5000
  C   C377      1.0  0.28100  0.10630  0.49900  0.5000
  C   C378      1.0  0.71900  0.60630  0.50100  0.5000
  H   H361      1.0  0.34147  0.10482  0.47976  0.5000
  H   H362      1.0  0.65853  0.60482  0.52024  0.5000
  C   C379      1.0  0.23400  0.08480  0.51900  0.5000
  C   C380      1.0  0.76600  0.58480  0.48100  0.5000
  H   H363      1.0  0.26011  0.06845  0.51306  0.5000
  H   H364      1.0  0.73989  0.56845  0.48694  0.5000
  C   C381      1.0  0.14700  0.08780  0.54700  0.5000
  C   C382      1.0  0.85300  0.58780  0.45300  0.5000
  H   H365      1.0  0.11296  0.07333  0.56073  0.5000
  H   H366      1.0  0.88703  0.57333  0.43927  0.5000
  C   C383      1.0  0.01700  0.11500  0.58500  0.5000
  C   C384      1.0  0.98300  0.61500  0.41500  0.5000
  O   O7        1.0  0.01900  0.14070  0.61100  0.5000
  O   O8        1.0  0.98100  0.64070  0.38900  0.5000
  C   C385      1.0  0.85550  0.40720  0.94860  1.0000
  C   C386      1.0  0.14450  0.90720  0.05140  1.0000
  C   C387      1.0  0.85450  0.38090  0.95110  1.0000
  C   C388      1.0  0.14550  0.88090  0.04890  1.0000
  C   C389      1.0  0.91140  0.36830  0.99740  1.0000
  C   C390      1.0  0.08860  0.86830  0.00260  1.0000
  H   H367      1.0  0.91067  0.35033  0.99911  1.0000
  H   H368      1.0  0.08933  0.85033  0.00089  1.0000
  C   C391      1.0  0.96920  0.38180  0.04120  1.0000
  C   C392      1.0  0.03080  0.88180  0.95880  1.0000
  H   H369      1.0  0.00805  0.37314  0.07283  1.0000
  H   H370      1.0  0.99194  0.87314  0.92717  1.0000
  C   C393      1.0  0.97020  0.40800  0.03870  1.0000
  C   C394      1.0  0.02980  0.90800  0.96130  1.0000
  H   H371      1.0  0.00975  0.41730  0.06860  1.0000
  H   H372      1.0  0.99025  0.91730  0.93140  1.0000
  C   C395      1.0  0.91340  0.42070  0.99240  1.0000
  C   C396      1.0  0.08660  0.92070  0.00760  1.0000
  H   H373      1.0  0.91405  0.43865  0.99064  1.0000
  H   H374      1.0  0.08595  0.93865  0.00936  1.0000
  C   C397      1.0  0.80000  0.41970  0.89320  1.0000
  C   C398      1.0  0.20000  0.91970  0.10680  1.0000
  C   C399      1.0  0.80700  0.44880  0.89930  1.0000
  C   C400      1.0  0.19300  0.94880  0.10070  1.0000
  H   H375      1.0  0.78473  0.45660  0.85712  1.0000
  H   H376      1.0  0.21527  0.95660  0.14288  1.0000
  H   H377      1.0  0.87233  0.45352  0.90751  1.0000
  H   H378      1.0  0.12767  0.95352  0.09249  1.0000
  H   H379      1.0  0.76899  0.45462  0.93695  1.0000
  H   H380      1.0  0.23101  0.95462  0.06305  1.0000
  O   O9        1.0  0.74390  0.41110  0.85530  1.0000
  O   O10       1.0  0.25610  0.91110  0.14470  1.0000
  O   O11       1.0  0.79740  0.36800  0.90940  1.0000
  O   O12       1.0  0.20260  0.86800  0.09060  1.0000
  O   O13       1.0  0.69600  0.08870  0.41150  1.0000
  O   O14       1.0  0.30400  0.58870  0.58850  1.0000
  O   O15       1.0  0.79400  0.51410  0.54670  1.0000
  O   O16       1.0  0.20600  0.01410  0.45330  1.0000
  N   N51       1.0  0.14850  0.25200  0.15560  1.0000
  N   N52       1.0  0.85150  0.75200  0.84440  1.0000
  C   C401      1.0  0.12610  0.26170  0.20560  1.0000
  C   C402      1.0  0.87390  0.76170  0.79440  1.0000
  C   C403      1.0  0.09320  0.27470  0.26750  1.0000
  C   C404      1.0  0.90680  0.77470  0.73250  1.0000
  H   H381      1.0  0.14620  0.28269  0.29074  1.0000
  H   H382      1.0  0.85380  0.78269  0.70926  1.0000
  H   H383      1.0  0.06453  0.26229  0.29764  1.0000
  H   H384      1.0  0.93547  0.76229  0.70236  1.0000
  H   H385      1.0  0.04709  0.28755  0.25484  1.0000
  H   H386      1.0  0.95291  0.78755  0.74516  1.0000
  N   N53       1.0  0.34260  0.36140  0.82470  1.0000
  N   N54       1.0  0.65740  0.86140  0.17530  1.0000
  C   C405      1.0  0.37060  0.35180  0.77660  1.0000
  C   C406      1.0  0.62940  0.85180  0.22340  1.0000
  C   C407      1.0  0.40110  0.33980  0.71310  1.0000
  C   C408      1.0  0.59890  0.83980  0.28690  1.0000
  H   H387      1.0  0.35051  0.34066  0.67938  1.0000
  H   H388      1.0  0.64949  0.84067  0.32062  1.0000
  H   H389      1.0  0.41712  0.32211  0.72188  1.0000
  H   H390      1.0  0.58288  0.82211  0.27812  1.0000
  H   H391      1.0  0.45592  0.34871  0.69609  1.0000
  H   H392      1.0  0.54408  0.84871  0.30391  1.0000
  N   N55       1.0  0.45500  0.19030  0.13400  1.0000
  N   N56       1.0  0.54500  0.69030  0.86600  1.0000
  C   C409      1.0  0.39300  0.20060  0.10060  1.0000
  C   C410      1.0  0.60700  0.70060  0.89940  1.0000
  C   C411      1.0  0.34400  0.21590  0.06370  1.0000
  C   C412      1.0  0.65600  0.71590  0.93630  1.0000
  H   H393      1.0  0.28828  0.22079  0.08817  1.0000
  H   H394      1.0  0.71172  0.72079  0.91183  1.0000
  H   H395      1.0  0.32634  0.20741  0.02139  1.0000
  H   H396      1.0  0.67366  0.70741  0.97861  1.0000
  H   H397      1.0  0.38131  0.23093  0.05353  1.0000
  H   H398      1.0  0.61869  0.73093  0.94647  1.0000
  N   N57       1.0  0.07600  0.43530  0.86000  1.0000
  N   N58       1.0  0.92400  0.93530  0.14000  1.0000
  C   C413      1.0  0.09500  0.41560  0.87800  1.0000
  C   C414      1.0  0.90500  0.91560  0.12200  1.0000
  C   C415      1.0  0.15780  0.39650  0.91350  1.0000
  C   C416      1.0  0.84220  0.89650  0.08650  1.0000
  H   H399      1.0  0.18310  0.40391  0.95532  1.0000
  H   H400      1.0  0.81690  0.90391  0.04468  1.0000
  H   H401      1.0  0.20915  0.39190  0.88372  1.0000
  H   H402      1.0  0.79085  0.89190  0.11628  1.0000
  H   H403      1.0  0.12147  0.38141  0.92434  1.0000
  H   H404      1.0  0.87853  0.88141  0.07566  1.0000
