data_run06i41amd
_audit_creation_date               2019-07-31
_audit_creation_method
;
Olex2 1.2
(compiled 2018.05.29 svn.r3508 for OlexSys, GUI svn.r5506)
;
_shelx_SHELXL_version_number       '2018/1'
_audit_contact_author_address      ?
_audit_contact_author_email        ?
_audit_contact_author_name         ''
_audit_contact_author_phone        ?
_publ_contact_author_id_orcid      ?
_publ_section_references
;
Bourhis, L.J., Dolomanov, O.V., Gildea, R.J., Howard, J.A.K., Puschmann, H.
 (2015). Acta Cryst. A71, 59-75.

Dolomanov, O.V., Bourhis, L.J., Gildea, R.J, Howard, J.A.K. & Puschmann, H.
 (2009), J. Appl. Cryst. 42, 339-341.

Sheldrick, G.M. (2015). Acta Cryst. C71, 3-8.
;
_chemical_name_common              ?
_chemical_name_systematic          ?
_chemical_formula_moiety           'C24 H8 Cl0.5 Co0.75 Fe1.5 N6 O8.5'
_chemical_formula_sum              'C48 H16 Cl Co1.50 Fe3 N12 O17'
_chemical_formula_weight           1323.39
_chemical_melting_point            ?
loop_
  _atom_type_symbol
  _atom_type_description
  _atom_type_scat_dispersion_real
  _atom_type_scat_dispersion_imag
  _atom_type_scat_source
 'C' 'C' 0.0037 0.0017 'International Tables Vol C Tables 4.2.6.8 and 6.1.1.4'
 'H' 'H' 0.0000 0.0000 'International Tables Vol C Tables 4.2.6.8 and 6.1.1.4'
 'Co' 'Co' 0.3576 1.0111 'International Tables Vol C Tables 4.2.6.8 and 6.1.1.4'
 'Fe' 'Fe' 0.3621 0.8896 'International Tables Vol C Tables 4.2.6.8 and 6.1.1.4'
 'N' 'N' 0.0070 0.0034 'International Tables Vol C Tables 4.2.6.8 and 6.1.1.4'
 'O' 'O' 0.0123 0.0065 'International Tables Vol C Tables 4.2.6.8 and 6.1.1.4'
 'Cl' 'Cl' 0.1545 0.1684 'International Tables Vol C Tables 4.2.6.8 and 6.1.1.4'

_shelx_space_group_comment
;
The symmetry employed for this shelxl refinement is uniquely defined
by the following loop, which should always be used as a source of
symmetry information in preference to the above space-group names.
They are only intended as comments.
;
_space_group_crystal_system        'tetragonal'
_space_group_IT_number             141
_space_group_name_H-M_alt          'I 41/a m d'
_space_group_name_Hall             '-I 4bd 2'
loop_
  _space_group_symop_operation_xyz
 'x, y, z'
 '-x+1/2, -y, z+1/2'
 '-y+1/4, x+3/4, z+1/4'
 'y+1/4, -x+1/4, z+3/4'
 '-x+1/2, y, -z+1/2'
 'x, -y, -z'
 'y+1/4, x+3/4, -z+1/4'
 '-y+1/4, -x+1/4, -z+3/4'
 'x+1/2, y+1/2, z+1/2'
 '-x+1, -y+1/2, z+1'
 '-y+3/4, x+5/4, z+3/4'
 'y+3/4, -x+3/4, z+5/4'
 '-x+1, y+1/2, -z+1'
 'x+1/2, -y+1/2, -z+1/2'
 'y+3/4, x+5/4, -z+3/4'
 '-y+3/4, -x+3/4, -z+5/4'
 '-x, -y, -z'
 'x-1/2, y, -z-1/2'
 'y-1/4, -x-3/4, -z-1/4'
 '-y-1/4, x-1/4, -z-3/4'
 'x-1/2, -y, z-1/2'
 '-x, y, z'
 '-y-1/4, -x-3/4, z-1/4'
 'y-1/4, x-1/4, z-3/4'
 '-x+1/2, -y+1/2, -z+1/2'
 'x, y+1/2, -z'
 'y+1/4, -x-1/4, -z+1/4'
 '-y+1/4, x+1/4, -z-1/4'
 'x, -y+1/2, z'
 '-x+1/2, y+1/2, z+1/2'
 '-y+1/4, -x-1/4, z+1/4'
 'y+1/4, x+1/4, z-1/4'

_cell_length_a                     29.121(2)
_cell_length_b                     29.121(2)
_cell_length_c                     52.191(4)
_cell_angle_alpha                  90
_cell_angle_beta                   90
_cell_angle_gamma                  90
_cell_volume                       44260(7)
_cell_formula_units_Z              16
_cell_measurement_reflns_used      1753
_cell_measurement_temperature      100
_cell_measurement_theta_max        23.47
_cell_measurement_theta_min        2.89
_shelx_estimated_absorpt_T_max     ?
_shelx_estimated_absorpt_T_min     ?
_exptl_absorpt_coefficient_mu      0.712
_exptl_absorpt_correction_T_max    0.0420
_exptl_absorpt_correction_T_min    0.0225
_exptl_absorpt_correction_type     multi-scan
_exptl_absorpt_process_details     SADABS
_exptl_absorpt_special_details     ?
_exptl_crystal_colour              black
_exptl_crystal_density_diffrn      0.795
_exptl_crystal_density_meas        ?
_exptl_crystal_density_method      ?
_exptl_crystal_description         needle
_exptl_crystal_F_000               10552
_exptl_crystal_size_max            0.06
_exptl_crystal_size_mid            0.01
_exptl_crystal_size_min            0.01
_exptl_transmission_factor_max     ?
_exptl_transmission_factor_min     ?
_diffrn_reflns_av_R_equivalents    0.1950
_diffrn_reflns_av_unetI/netI       0.1567
_diffrn_reflns_Laue_measured_fraction_full  0.953
_diffrn_reflns_Laue_measured_fraction_max  0.953
_diffrn_reflns_limit_h_max         30
_diffrn_reflns_limit_h_min         -30
_diffrn_reflns_limit_k_max         15
_diffrn_reflns_limit_k_min         -31
_diffrn_reflns_limit_l_max         52
_diffrn_reflns_limit_l_min         -57
_diffrn_reflns_number              28367
_diffrn_reflns_point_group_measured_fraction_full  0.953
_diffrn_reflns_point_group_measured_fraction_max  0.953
_diffrn_reflns_theta_full          23.896
_diffrn_reflns_theta_max           23.896
_diffrn_reflns_theta_min           2.125
_diffrn_ambient_temperature        100.0
_diffrn_detector_area_resol_mean  7.39
_diffrn_detector_type              'CMOS detector'
_diffrn_measured_fraction_theta_full  0.953
_diffrn_measured_fraction_theta_max  0.953
_diffrn_measurement_device_type    'Bruker D8 with PHOTON II detector'
_diffrn_measurement_method         '\f and \w shutterless scans'
_diffrn_radiation_monochromator    'silicon 111'
_diffrn_radiation_type             synchrotron
_diffrn_radiation_wavelength       0.7288
_diffrn_source                     'Advanced Light Source, station 12.2.1'
_diffrn_standards_number           0
_reflns_Friedel_coverage           0.000
_reflns_Friedel_fraction_full      .
_reflns_Friedel_fraction_max       .
_reflns_number_gt                  3266
_reflns_number_total               7948
_reflns_special_details
;
 Reflections were merged by SHELXL according to the crystal
 class for the calculation of statistics and refinement.
 
 Structure factors included contributions from the .fab file.
 
 _reflns_Friedel_fraction is defined as the number of unique
 Friedel pairs measured divided by the number that would be
 possible theoretically, ignoring centric projections and
 systematic absences.
;
_reflns_threshold_expression       'I > 2\s(I)'
_computing_cell_refinement         'SAINT V8.38A Bruker-AXS, Madison WI'
_computing_data_collection         'Bruker APEX3 Bruker-AXS, Madison WI'
_computing_data_reduction          'SAINT V8.38A Bruker-AXS, Madison WI'
_computing_molecular_graphics      'Olex2 (Dolomanov et al., 2009)'
_computing_publication_material    'Olex2 (Dolomanov et al., 2009)'
_computing_structure_refinement    'ShelXL (Sheldrick, 2015)'
_computing_structure_solution      'ShelXT (Sheldrick, 2015)'
_refine_diff_density_max           1.250
_refine_diff_density_min           -0.609
_refine_diff_density_rms           0.066
_refine_ls_extinction_coef         .
_refine_ls_extinction_method       none
_refine_ls_goodness_of_fit_ref     0.903
_refine_ls_hydrogen_treatment      constr
_refine_ls_matrix_type             full
_refine_ls_number_parameters       388
_refine_ls_number_reflns           7948
_refine_ls_number_restraints       6
_refine_ls_R_factor_all            0.1591
_refine_ls_R_factor_gt             0.0899
_refine_ls_restrained_S_all        0.903
_refine_ls_shift/su_max            0.001
_refine_ls_shift/su_mean           0.000
_refine_ls_structure_factor_coef   Fsqd
_refine_ls_weighting_details      
 'w=1/[\s^2^(Fo^2^)+(0.1279P)^2^] where P=(Fo^2^+2Fc^2^)/3'
_refine_ls_weighting_scheme        calc
_refine_ls_wR_factor_gt            0.2138
_refine_ls_wR_factor_ref           0.2543
_refine_special_details            ?
_olex2_refinement_description
;
1. Fixed Uiso
 At 1.2 times of:
  All C(H) groups
 At 1.5 times of:
  All O(H,H) groups
2. Uiso/Uaniso restraints and constraints
Uanis(N00F) \\sim Ueq: with sigma of 0.1 and sigma for terminal atoms of 0.2
3. Others
 Fixed Sof: Cl05(0.25) Cl06(0.25)
4.a Rotating group:
 O00A(H00A,H00B)
4.b Aromatic/amide H refined with riding coordinates:
 C00K(H00K), C00T(H00T), C016(H016), C01A(H01A), C01C(H01C), C00Y(H00Y)
;
_atom_sites_solution_hydrogens     mixed
_atom_sites_solution_primary       'dual space'
_atom_sites_solution_secondary     diffmap

# start Validation Reply Form
_vrf_THETM01_run06i41amd
;
PROBLEM: The value of sine(theta_max)/wavelength is less than 0.550
RESPONSE: The crystallinity of the crystal is limited and it didn't diffracted
Very well.
;
_vrf_RINTA01_run06i41amd
;
PROBLEM: The value of Rint is greater than 0.18
RESPONSE: The crystallinity of the crystal is limited and it didn't diffracted
Very well.
;
_vrf_PLAT213_run06i41amd
;
PROBLEM: Atom Co04            has ADP max/min Ratio .....        5.1 prolat
RESPONSE: The Co-phthalocyanine is bent in the structure and for each atom it was
modeled as one elongated ellipsoid instead of split atom positions.
;
_vrf_PLAT415_run06i41amd
;
PROBLEM: Short Inter D-H..H-X       H00B     ..H00Y     .       1.69 Ang.  
RESPONSE: ...
;
_vrf_PLAT020_run06i41amd
;
PROBLEM: The Value of Rint is Greater Than 0.12 .........      0.195 Report
RESPONSE: The crystallinity of the crystal is limited and it didn't diffracted
Very well.
;
_vrf_PLAT021_run06i41amd
;
PROBLEM: Ratio Unique / Expected Reflections too High ...      9.599       
RESPONSE: The crystallinity of the crystal is limited and it didn't diffracted
Very well.
;
_vrf_PLAT029_run06i41amd
;
PROBLEM: _diffrn_measured_fraction_theta_full value Low .      0.953 Why?  
RESPONSE: The crystallinity of the crystal is limited and it didn't diffracted
Very well.
;
_vrf_PLAT201_run06i41amd
;
PROBLEM: Isotropic non-H Atoms in Main Residue(s) .......          1 Report
RESPONSE: The anisotropic refinement of C00W remained unstable so that was refined
isotropically.
;
_vrf_PLAT250_run06i41amd
;
PROBLEM: Large U3/U1 Ratio for Average U(i,j) Tensor ....        6.6 Note  
RESPONSE: The Co-phthalocyanine is bent in the structure and for each atom it was
modeled as one elongated ellipsoid instead of split atom positions.
;
_vrf_PLAT260_run06i41amd
;
PROBLEM: Large Average Ueq of Residue Including        O1      0.347 Check 
RESPONSE: The atomic assignment of O1 and O2 is to represent the disordered solvent
electron densities in the pore of MOF, doesn't necessarily mean the existence of the
oxygen atom there.
;
_vrf_PLAT306_run06i41amd
;
PROBLEM: Isolated Oxygen Atom (H-atoms Missing ?) .......         O1 Check 
RESPONSE: The atomic assignment of O1 and O2 is to represent the disordered solvent
electron densities in the pore of MOF, doesn't necessarily mean the existence of the
oxygen atom there.
;
_vrf_PLAT420_run06i41amd
;
PROBLEM: D-H Without Acceptor       O00A     --H00A     .     Please Check 
RESPONSE: The acceptor is assumed to be the disordered solvent molecules in the pore.
;
_vrf_PLAT430_run06i41amd
;
PROBLEM: Short Inter D...A Contact  O2       ..O009     .       2.80 Ang.  
RESPONSE: The atomic assignment of O1 and O2 is to represent the disordered solvent
electron densities in the pore of MOF, doesn't necessarily mean the existence of the
oxygen atom there.
;
# end Validation Reply Form


loop_
  _atom_site_label
  _atom_site_type_symbol
  _atom_site_fract_x
  _atom_site_fract_y
  _atom_site_fract_z
  _atom_site_U_iso_or_equiv
  _atom_site_adp_type
  _atom_site_occupancy
  _atom_site_site_symmetry_order
  _atom_site_calc_flag
  _atom_site_refinement_flags_posn
  _atom_site_refinement_flags_adp
  _atom_site_refinement_flags_occupancy
  _atom_site_disorder_assembly
  _atom_site_disorder_group
 Fe01 Fe 0.72254(4) 0.52746(4) 0.375000 0.0448(4) Uani 1 2 d S T P . .
 Fe02 Fe 0.77988(4) 0.47401(5) 0.57026(2) 0.0608(4) Uani 1 1 d . . . . .
 Co03 Co 0.73984(12) 0.250000 0.44715(3) 0.1374(14) Uani 1 2 d S T P . .
 Co04 Co 0.750000 0.750000 0.250000 0.180(3) Uani 1 4 d S T P . .
 Cl05 Cl 0.6526(5) 0.250000 0.4538(2) 0.170(5) Uani 0.5 2 d S T P . .
 Cl06 Cl 0.8396(6) 0.750000 0.25689(19) 0.183(6) Uani 0.5 2 d S T P . .
 O007 O 0.73158(18) 0.53341(17) 0.33595(7) 0.0511(13) Uani 1 1 d . . . . .
 O008 O 0.7250(2) 0.46474(16) 0.35977(8) 0.0591(15) Uani 1 1 d . . . . .
 O009 O 0.7706(2) 0.46742(19) 0.53328(7) 0.0624(15) Uani 1 1 d . . . . .
 O00A O 0.7881(2) 0.5436(2) 0.56311(10) 0.0780(18) Uani 1 1 d . . . . .
 H00A H 0.817046 0.551068 0.565028 0.117 Uiso 1 1 d GR . . . .
 H00B H 0.773847 0.559468 0.574880 0.117 Uiso 1 1 d GR . . . .
 O00B O 0.7246(3) 0.59570(19) 0.36986(8) 0.090(2) Uani 1 1 d . . . . .
 O00C O 0.7201(3) 0.4022(2) 0.32559(8) 0.111(3) Uani 1 1 d . . . . .
 O00D O 0.7710(3) 0.4034(2) 0.56816(8) 0.093(2) Uani 1 1 d . . . . .
 O00E O 0.8195(8) 0.250000 0.4420(3) 0.235(9) Uani 1 2 d S T P . .
 N00F N 0.7546(6) 0.250000 0.51075(14) 0.136(6) Uani 1 2 d S TU P . .
 N00G N 0.750000 0.6349(4) 0.250000 0.121(6) Uani 1 2 d S T P . .
 N00I N 0.7396(3) 0.3660(2) 0.44665(9) 0.088(3) Uani 1 1 d . . . . .
 N00L N 0.7340(7) 0.750000 0.31407(16) 0.169(9) Uani 1 2 d S T P . .
 C00M C 0.7519(5) 0.2876(3) 0.49786(12) 0.107(4) Uani 1 1 d . . . . .
 N00N N 0.7456(4) 0.2976(2) 0.47231(10) 0.111(4) Uani 1 1 d . . . . .
 N00O N 0.7365(5) 0.2964(2) 0.42124(10) 0.143(5) Uani 1 1 d . . . . .
 N00P N 0.7296(7) 0.250000 0.38395(17) 0.173(9) Uani 1 2 d S T P . .
 N00Q N 0.7431(6) 0.7040(2) 0.27544(10) 0.189(7) Uani 1 1 d . . . . .
 C00Z C 0.7449(6) 0.6567(3) 0.27158(12) 0.152(7) Uani 1 1 d . . . . .
 C010 C 0.7533(4) 0.3680(4) 0.49287(13) 0.102(4) Uani 1 1 d . . . . .
 C00K C 0.7551(3) 0.4137(3) 0.49912(12) 0.077(3) Uani 1 1 d . . . . .
 H00K H 0.752270 0.436617 0.486248 0.093 Uiso 1 1 calc R . . . .
 C00X C 0.7613(4) 0.4260(3) 0.52490(14) 0.077(3) Uani 1 1 d . . . . .
 C013 C 0.7651(4) 0.3889(3) 0.54430(12) 0.083(3) Uani 1 1 d . . . . .
 C00T C 0.7587(4) 0.3433(4) 0.53753(14) 0.104(4) Uani 1 1 d . . . . .
 H00T H 0.756849 0.319656 0.550048 0.125 Uiso 1 1 calc R . . . .
 C011 C 0.7553(6) 0.3341(3) 0.51193(13) 0.127(6) Uani 1 1 d . . . . .
 C012 C 0.7476(4) 0.3436(3) 0.46839(16) 0.095(4) Uani 1 1 d . . . . .
 C016 C 0.7389(4) 0.5872(3) 0.30127(13) 0.093(4) Uani 1 1 d . . . . .
 H016 H 0.742665 0.564655 0.288302 0.111 Uiso 1 1 calc R . . . .
 C00S C 0.7405(5) 0.6342(3) 0.29611(12) 0.115(5) Uani 1 1 d . . . . .
 C00V C 0.7356(6) 0.6657(2) 0.31468(12) 0.149(7) Uani 1 1 d . . . . .
 C01A C 0.7316(4) 0.6577(3) 0.34047(14) 0.099(4) Uani 1 1 d . . . . .
 H01A H 0.729663 0.681295 0.352972 0.119 Uiso 1 1 calc R . . . .
 C00U C 0.7307(4) 0.6100(3) 0.34646(12) 0.095(4) Uani 1 1 d . . . . .
 C00R C 0.7315(3) 0.5759(3) 0.32687(11) 0.052(2) Uani 1 1 d . . . . .
 C017 C 0.7403(7) 0.7115(3) 0.30182(15) 0.164(8) Uani 1 1 d . . . . .
 C018 C 0.7350(6) 0.3428(3) 0.42558(13) 0.150(7) Uani 1 1 d . . . . .
 C01B C 0.7289(6) 0.2884(3) 0.39602(14) 0.163(7) Uani 1 1 d . . . . .
 C01C C 0.7246(6) 0.3419(3) 0.35587(14) 0.155(7) Uani 1 1 d . . . . .
 H01C H 0.723165 0.318521 0.343217 0.186 Uiso 1 1 calc R . . . .
 C00W C 0.7238(3) 0.3873(3) 0.34932(14) 0.069(2) Uiso 1 1 d . . . . .
 C00J C 0.7234(4) 0.4229(3) 0.36918(11) 0.073(3) Uani 1 1 d . . . . .
 C00Y C 0.7257(4) 0.4127(3) 0.39373(13) 0.099(4) Uani 1 1 d . . . . .
 H00Y H 0.726877 0.436262 0.406292 0.119 Uiso 1 1 calc R . . . .
 C014 C 0.7263(6) 0.3672(4) 0.40084(15) 0.142(6) Uani 1 1 d . . . . .
 C019 C 0.7277(6) 0.3312(3) 0.38195(18) 0.159(7) Uani 1 1 d . . . . .
 O1 O 0.7504(12) 0.250000 0.6002(3) 0.348(18) Uani 1 2 d S T P . .
 O2 O 0.8385(5) 0.500000 0.500000 0.193(7) Uani 1 2 d S T P . .

loop_
  _atom_site_aniso_label
  _atom_site_aniso_U_11
  _atom_site_aniso_U_22
  _atom_site_aniso_U_33
  _atom_site_aniso_U_23
  _atom_site_aniso_U_13
  _atom_site_aniso_U_12
 Fe01 0.0544(6) 0.0544(6) 0.0255(6) 0.0035(4) 0.0035(4) 0.0019(9)
 Fe02 0.0568(8) 0.0965(10) 0.0290(5) -0.0098(5) -0.0073(5) 0.0050(8)
 Co03 0.350(4) 0.0367(11) 0.0251(7) 0.000 -0.0326(13) 0.000
 Co04 0.489(9) 0.0278(15) 0.0234(10) 0.000 0.044(2) 0.000
 Cl05 0.269(16) 0.092(7) 0.149(8) 0.000 -0.056(9) 0.000
 Cl06 0.295(18) 0.131(9) 0.122(7) 0.000 0.051(9) 0.000
 O007 0.067(4) 0.051(3) 0.036(2) 0.002(2) 0.007(2) -0.003(3)
 O008 0.092(4) 0.034(3) 0.052(3) 0.007(2) -0.009(3) -0.012(3)
 O009 0.095(4) 0.068(4) 0.025(2) -0.003(2) -0.006(2) 0.013(4)
 O00A 0.063(4) 0.094(5) 0.077(3) -0.022(3) -0.024(3) -0.024(3)
 O00B 0.185(7) 0.055(4) 0.031(3) 0.007(2) 0.011(3) 0.005(4)
 O00C 0.236(9) 0.073(4) 0.026(2) 0.013(2) -0.021(4) -0.014(5)
 O00D 0.174(7) 0.071(4) 0.033(2) -0.017(2) -0.019(3) 0.015(5)
 O00E 0.36(3) 0.213(18) 0.130(11) 0.000 -0.047(14) 0.000
 N00F 0.33(2) 0.075(9) 0.009(4) 0.000 -0.017(6) 0.000
 N00G 0.275(18) 0.067(8) 0.021(4) 0.000 0.028(7) 0.000
 N00I 0.201(9) 0.041(4) 0.022(3) 0.000(3) -0.023(4) -0.014(5)
 N00L 0.44(3) 0.038(7) 0.025(4) 0.000 0.024(9) 0.000
 C00M 0.236(14) 0.057(6) 0.029(4) -0.014(4) -0.032(6) -0.025(7)
 N00N 0.256(12) 0.050(5) 0.026(3) -0.004(3) -0.033(4) 0.020(6)
 N00O 0.378(17) 0.021(4) 0.030(3) 0.000(3) -0.028(6) -0.013(7)
 N00P 0.44(3) 0.041(7) 0.036(5) 0.000 -0.065(9) 0.000
 N00Q 0.52(2) 0.030(5) 0.019(3) 0.001(3) 0.031(6) 0.020(8)
 C00Z 0.41(2) 0.025(5) 0.020(3) -0.007(3) 0.043(7) 0.005(9)
 C010 0.189(12) 0.090(8) 0.027(4) -0.011(4) -0.027(5) 0.007(8)
 C00K 0.141(9) 0.066(6) 0.025(3) -0.014(3) -0.008(4) 0.002(6)
 C00X 0.122(9) 0.057(6) 0.052(4) -0.013(4) 0.000(5) -0.015(6)
 C013 0.154(10) 0.068(6) 0.029(3) 0.002(4) -0.010(4) 0.026(7)
 C00T 0.186(12) 0.083(8) 0.042(4) -0.016(5) -0.006(6) 0.028(8)
 C011 0.311(18) 0.040(6) 0.030(4) -0.003(4) 0.002(6) -0.001(8)
 C012 0.159(11) 0.049(6) 0.076(6) -0.020(5) -0.039(6) 0.001(7)
 C016 0.164(11) 0.075(7) 0.039(4) -0.008(4) 0.026(5) -0.010(7)
 C00S 0.301(17) 0.023(5) 0.022(3) 0.004(3) 0.015(5) -0.007(7)
 C00V 0.41(2) 0.008(4) 0.027(4) -0.008(3) 0.060(7) -0.007(8)
 C01A 0.213(13) 0.035(5) 0.048(4) -0.005(4) 0.031(6) -0.002(7)
 C00U 0.196(12) 0.065(6) 0.025(3) 0.022(4) 0.016(5) -0.009(7)
 C00R 0.077(6) 0.049(5) 0.029(3) 0.018(3) 0.014(3) 0.004(5)
 C017 0.40(2) 0.044(6) 0.044(5) 0.000(4) 0.045(8) 0.051(10)
 C018 0.37(2) 0.049(6) 0.027(4) 0.017(4) -0.019(7) 0.033(9)
 C01B 0.44(2) 0.014(4) 0.039(4) 0.013(4) -0.046(8) 0.004(9)
 C01C 0.39(2) 0.043(6) 0.034(4) -0.002(4) -0.040(8) -0.003(10)
 C00J 0.136(9) 0.053(6) 0.029(3) 0.014(3) -0.019(4) -0.020(6)
 C00Y 0.225(13) 0.028(5) 0.044(4) 0.014(3) -0.019(6) 0.001(7)
 C014 0.296(19) 0.087(9) 0.042(5) 0.004(5) -0.010(7) -0.030(10)
 C019 0.36(2) 0.045(7) 0.073(6) -0.016(5) -0.040(9) -0.037(10)
 O1 0.83(6) 0.065(9) 0.146(12) 0.000 0.03(2) 0.000
 O2 0.162(14) 0.28(2) 0.136(10) 0.039(11) 0.000 0.000

_geom_special_details
;
 All esds (except the esd in the dihedral angle between two l.s. planes)
 are estimated using the full covariance matrix.  The cell esds are taken
 into account individually in the estimation of esds in distances, angles
 and torsion angles; correlations between esds in cell parameters are only
 used when they are defined by crystal symmetry.  An approximate (isotropic)
 treatment of cell esds is used for estimating esds involving l.s. planes.
;
loop_
  _geom_bond_atom_site_label_1
  _geom_bond_atom_site_label_2
  _geom_bond_distance
  _geom_bond_site_symmetry_2
  _geom_bond_publ_flag
 Fe01 O007 2.062(4) 8_665 ?
 Fe01 O007 2.062(4) . ?
 Fe01 O008 1.993(5) 8_665 ?
 Fe01 O008 1.993(5) . ?
 Fe01 O00B 2.006(5) . ?
 Fe01 O00B 2.006(6) 8_665 ?
 Fe02 O007 2.029(5) 3_645 ?
 Fe02 O008 2.068(4) 3_645 ?
 Fe02 O009 1.958(4) . ?
 Fe02 O00A 2.074(6) . ?
 Fe02 O00C 2.001(6) 3_645 ?
 Fe02 O00D 2.075(6) . ?
 Co03 Cl05 2.563(16) . ?
 Co03 O00E 2.33(2) . ?
 Co03 N00N 1.917(6) . ?
 Co03 N00N 1.917(6) 29 ?
 Co03 N00O 1.915(6) . ?
 Co03 N00O 1.915(6) 29 ?
 Co04 Cl06 2.633(17) . ?
 Co04 Cl06 2.633(17) 25_665 ?
 Co04 N00Q 1.896(6) . ?
 Co04 N00Q 1.896(6) 29_565 ?
 Co04 N00Q 1.896(6) 5_655 ?
 Co04 N00Q 1.896(6) 25_665 ?
 O007 C00R 1.326(8) . ?
 O008 C00J 1.313(8) . ?
 O009 C00X 1.310(9) . ?
 O00A H00A 0.8758 . ?
 O00A H00B 0.8744 . ?
 O00B C00U 1.302(7) . ?
 O00C C00W 1.317(9) . ?
 O00D C013 1.326(8) . ?
 N00F C00M 1.287(9) 29 ?
 N00F C00M 1.287(9) . ?
 N00G C00Z 1.302(8) 5_655 ?
 N00G C00Z 1.302(8) . ?
 N00I C012 1.330(10) . ?
 N00I C018 1.297(10) . ?
 N00L C017 1.305(10) 29_565 ?
 N00L C017 1.305(10) . ?
 C00M N00N 1.377(8) . ?
 C00M C011 1.543(11) . ?
 N00N C012 1.356(11) . ?
 N00O C018 1.371(11) . ?
 N00O C01B 1.355(9) . ?
 N00P C01B 1.283(9) 29 ?
 N00P C01B 1.283(9) . ?
 N00Q C00Z 1.392(10) . ?
 N00Q C017 1.396(9) . ?
 C00Z C00S 1.445(10) . ?
 C010 C00K 1.371(12) . ?
 C010 C011 1.404(11) . ?
 C010 C012 1.472(10) . ?
 C00K H00K 0.9500 . ?
 C00K C00X 1.404(9) . ?
 C00X C013 1.485(11) . ?
 C013 C00T 1.388(13) . ?
 C00T H00T 0.9500 . ?
 C00T C011 1.366(10) . ?
 C016 H016 0.9500 . ?
 C016 C00S 1.394(12) . ?
 C016 C00R 1.393(9) . ?
 C00S C00V 1.343(9) . ?
 C00V C01A 1.372(9) . ?
 C00V C017 1.498(12) . ?
 C01A H01A 0.9500 . ?
 C01A C00U 1.422(11) . ?
 C00U C00R 1.425(11) . ?
 C018 C014 1.495(11) . ?
 C01B C019 1.448(12) . ?
 C01C H01C 0.9500 . ?
 C01C C00W 1.365(12) . ?
 C01C C019 1.399(12) . ?
 C00W C00J 1.467(11) . ?
 C00J C00Y 1.318(9) . ?
 C00Y H00Y 0.9500 . ?
 C00Y C014 1.375(13) . ?
 C014 C019 1.440(13) . ?

loop_
  _geom_angle_atom_site_label_1
  _geom_angle_atom_site_label_2
  _geom_angle_atom_site_label_3
  _geom_angle
  _geom_angle_site_symmetry_1
  _geom_angle_site_symmetry_3
  _geom_angle_publ_flag
 O007 Fe01 O007 176.5(3) 8_665 . ?
 O008 Fe01 O007 106.3(2) . 8_665 ?
 O008 Fe01 O007 71.24(18) . . ?
 O008 Fe01 O007 106.3(2) 8_665 . ?
 O008 Fe01 O007 71.24(18) 8_665 8_665 ?
 O008 Fe01 O008 95.4(3) . 8_665 ?
 O008 Fe01 O00B 148.56(17) . . ?
 O008 Fe01 O00B 93.5(3) . 8_665 ?
 O008 Fe01 O00B 93.5(3) 8_665 . ?
 O008 Fe01 O00B 148.57(17) 8_665 8_665 ?
 O00B Fe01 O007 105.14(19) 8_665 . ?
 O00B Fe01 O007 77.33(19) . . ?
 O00B Fe01 O007 105.14(19) . 8_665 ?
 O00B Fe01 O007 77.33(19) 8_665 8_665 ?
 O00B Fe01 O00B 94.4(4) 8_665 . ?
 O007 Fe02 O008 70.43(17) 3_645 3_645 ?
 O007 Fe02 O00A 94.1(2) 3_645 . ?
 O007 Fe02 O00D 90.9(3) 3_645 . ?
 O008 Fe02 O00A 99.1(2) 3_645 . ?
 O008 Fe02 O00D 94.3(2) 3_645 . ?
 O009 Fe02 O007 106.4(2) . 3_645 ?
 O009 Fe02 O008 173.9(2) . 3_645 ?
 O009 Fe02 O00A 86.2(2) . . ?
 O009 Fe02 O00C 105.6(2) . 3_645 ?
 O009 Fe02 O00D 80.4(2) . . ?
 O00A Fe02 O00D 166.59(19) . . ?
 O00C Fe02 O007 148.02(18) 3_645 3_645 ?
 O00C Fe02 O008 77.71(18) 3_645 3_645 ?
 O00C Fe02 O00A 88.1(3) 3_645 . ?
 O00C Fe02 O00D 94.2(3) 3_645 . ?
 O00E Co03 Cl05 178.8(4) . . ?
 N00N Co03 Cl05 89.6(4) 29 . ?
 N00N Co03 Cl05 89.6(4) . . ?
 N00N Co03 O00E 89.6(4) . . ?
 N00N Co03 O00E 89.6(4) 29 . ?
 N00N Co03 N00N 92.6(4) . 29 ?
 N00O Co03 Cl05 92.6(4) . . ?
 N00O Co03 Cl05 92.6(4) 29 . ?
 N00O Co03 O00E 88.2(5) . . ?
 N00O Co03 O00E 88.2(5) 29 . ?
 N00O Co03 N00N 177.4(5) . 29 ?
 N00O Co03 N00N 88.7(3) 29 29 ?
 N00O Co03 N00N 88.7(3) . . ?
 N00O Co03 N00N 177.4(5) 29 . ?
 N00O Co03 N00O 89.9(4) 29 . ?
 Cl06 Co04 Cl06 180.0 . 25_665 ?
 N00Q Co04 Cl06 90.5(5) . . ?
 N00Q Co04 Cl06 89.5(5) 29_565 25_665 ?
 N00Q Co04 Cl06 90.5(5) 5_655 25_665 ?
 N00Q Co04 Cl06 89.5(5) . 25_665 ?
 N00Q Co04 Cl06 89.5(5) 25_665 . ?
 N00Q Co04 Cl06 90.5(5) 29_565 . ?
 N00Q Co04 Cl06 90.5(5) 25_665 25_665 ?
 N00Q Co04 Cl06 89.5(5) 5_655 . ?
 N00Q Co04 N00Q 89.9(4) 5_655 25_665 ?
 N00Q Co04 N00Q 90.1(4) 29_565 25_665 ?
 N00Q Co04 N00Q 180.0(4) 29_565 5_655 ?
 N00Q Co04 N00Q 89.8(4) 29_565 . ?
 N00Q Co04 N00Q 90.2(4) 5_655 . ?
 N00Q Co04 N00Q 180.0 25_665 . ?
 Fe02 O007 Fe01 108.0(2) 4_564 . ?
 C00R O007 Fe01 115.6(4) . . ?
 C00R O007 Fe02 134.8(4) . 4_564 ?
 Fe01 O008 Fe02 109.1(2) . 4_564 ?
 C00J O008 Fe01 134.3(4) . . ?
 C00J O008 Fe02 116.3(4) . 4_564 ?
 C00X O009 Fe02 116.6(5) . . ?
 Fe02 O00A H00A 109.5 . . ?
 Fe02 O00A H00B 109.6 . . ?
 H00A O00A H00B 104.2 . . ?
 C00U O00B Fe01 116.5(5) . . ?
 C00W O00C Fe02 116.8(5) . 4_564 ?
 C013 O00D Fe02 112.4(5) . . ?
 C00M N00F C00M 116.5(8) 29 . ?
 C00Z N00G C00Z 121.5(11) 5_655 . ?
 C018 N00I C012 119.1(7) . . ?
 C017 N00L C017 118.7(11) . 29_565 ?
 N00F C00M N00N 134.0(8) . . ?
 N00F C00M C011 119.6(6) . . ?
 N00N C00M C011 106.5(7) . . ?
 C00M N00N Co03 121.4(6) . . ?
 C012 N00N Co03 127.9(5) . . ?
 C012 N00N C00M 110.5(7) . . ?
 C018 N00O Co03 125.5(5) . . ?
 C01B N00O Co03 124.9(5) . . ?
 C01B N00O C018 109.1(6) . . ?
 C01B N00P C01B 121.1(10) 29 . ?
 C00Z N00Q Co04 126.4(5) . . ?
 C00Z N00Q C017 107.4(6) . . ?
 C017 N00Q Co04 125.9(6) . . ?
 N00G C00Z N00Q 127.8(7) . . ?
 N00G C00Z C00S 123.7(8) . . ?
 N00Q C00Z C00S 108.6(6) . . ?
 C00K C010 C011 120.9(7) . . ?
 C00K C010 C012 132.8(8) . . ?
 C011 C010 C012 106.2(8) . . ?
 C010 C00K H00K 120.6 . . ?
 C010 C00K C00X 118.7(8) . . ?
 C00X C00K H00K 120.6 . . ?
 O009 C00X C00K 125.5(8) . . ?
 O009 C00X C013 115.2(7) . . ?
 C00K C00X C013 118.5(8) . . ?
 O00D C013 C00X 114.7(8) . . ?
 O00D C013 C00T 124.2(7) . . ?
 C00T C013 C00X 120.9(7) . . ?
 C013 C00T H00T 121.7 . . ?
 C011 C00T C013 116.5(9) . . ?
 C011 C00T H00T 121.7 . . ?
 C010 C011 C00M 106.1(6) . . ?
 C00T C011 C00M 130.0(8) . . ?
 C00T C011 C010 123.9(9) . . ?
 N00I C012 N00N 127.3(7) . . ?
 N00I C012 C010 121.5(8) . . ?
 N00N C012 C010 110.6(8) . . ?
 C00S C016 H016 122.5 . . ?
 C00R C016 H016 122.5 . . ?
 C00R C016 C00S 115.0(7) . . ?
 C016 C00S C00Z 128.3(7) . . ?
 C00V C00S C00Z 109.7(7) . . ?
 C00V C00S C016 121.9(6) . . ?
 C00S C00V C01A 126.9(7) . . ?
 C00S C00V C017 106.0(6) . . ?
 C01A C00V C017 126.9(7) . . ?
 C00V C01A H01A 123.7 . . ?
 C00V C01A C00U 112.6(7) . . ?
 C00U C01A H01A 123.7 . . ?
 O00B C00U C01A 121.4(7) . . ?
 O00B C00U C00R 116.9(7) . . ?
 C01A C00U C00R 121.4(6) . . ?
 O007 C00R C016 124.3(7) . . ?
 O007 C00R C00U 113.2(5) . . ?
 C016 C00R C00U 121.8(7) . . ?
 N00L C017 N00Q 128.7(9) . . ?
 N00L C017 C00V 122.2(7) . . ?
 N00Q C017 C00V 108.0(8) . . ?
 N00I C018 N00O 130.5(7) . . ?
 N00I C018 C014 120.2(8) . . ?
 N00O C018 C014 109.3(7) . . ?
 N00O C01B C019 110.3(7) . . ?
 N00P C01B N00O 128.8(8) . . ?
 N00P C01B C019 120.1(7) . . ?
 C00W C01C H01C 121.3 . . ?
 C00W C01C C019 117.4(8) . . ?
 C019 C01C H01C 121.3 . . ?
 O00C C00W C01C 123.8(7) . . ?
 O00C C00W C00J 115.5(7) . . ?
 C01C C00W C00J 120.5(7) . . ?
 O008 C00J C00W 113.0(6) . . ?
 O008 C00J C00Y 124.9(7) . . ?
 C00Y C00J C00W 121.7(8) . . ?
 C00J C00Y H00Y 120.6 . . ?
 C00J C00Y C014 118.8(8) . . ?
 C014 C00Y H00Y 120.6 . . ?
 C00Y C014 C018 133.8(9) . . ?
 C00Y C014 C019 121.1(8) . . ?
 C019 C014 C018 103.9(10) . . ?
 C01C C019 C01B 133.4(8) . . ?
 C01C C019 C014 120.1(9) . . ?
 C014 C019 C01B 106.3(8) . . ?

_smtbx_masks_special_details       ?
loop_
  _smtbx_masks_void_nr
  _smtbx_masks_void_average_x
  _smtbx_masks_void_average_y
  _smtbx_masks_void_average_z
  _smtbx_masks_void_volume
  _smtbx_masks_void_count_electrons
  _smtbx_masks_void_content
 1 -0.658 -0.720 -0.706 28142.4 826.2 ?

_shelx_fab_file
;
0 0 12 -49.4646 -0.3428
0 0 20 36.6996 -1.5933
0 0 24 22.1099 -1.4982
0 0 36 -12.7320 -0.4087
0 0 44 4.8429 -2.5876
0 0 48 -14.8997 3.5718
0 0 52 7.3347 1.0474
0 0 56 -9.2143 -10.9030
1 0 5 30.8370 2.9775
1 0 7 55.1100 -1.4455
1 0 9 25.9255 -0.4136
1 0 11 27.7498 -1.1945
1 0 13 153.0312 -7.1830
1 0 15 18.7224 1.3553
1 0 17 -27.4161 -1.8719
1 0 19 64.2382 2.2566
1 0 21 -11.7736 4.2984
1 0 23 -72.8658 -1.1588
1 0 25 -3.9086 1.7898
1 0 27 -6.7279 -5.6344
1 0 29 -16.7883 -5.4221
1 0 31 -3.9422 -0.1766
1 0 33 15.2638 -2.8819
1 0 35 17.1524 3.9445
1 0 37 -19.6613 0.9588
1 0 39 -2.2221 0.2487
1 0 41 -19.7266 1.9046
1 0 43 -4.8612 -4.8852
1 0 45 2.7202 -0.7591
1 0 47 1.9113 -1.4687
1 0 49 1.9622 -2.1902
1 0 51 17.9180 2.2968
1 0 53 -36.1450 -2.6181
1 0 55 5.9784 0.6865
1 0 57 30.6638 -0.2492
1 1 6 25.0789 2.3775
1 1 10 38.6463 -1.0972
1 1 14 30.1620 -1.6910
1 1 18 29.2761 2.5665
1 1 22 10.9283 -0.7733
1 1 26 17.3211 0.3028
1 1 30 -2.0063 1.0644
1 1 34 -11.9576 1.5074
1 1 38 -14.9723 -2.0790
1 1 42 0.5854 0.5920
1 1 46 -44.5609 1.5524
1 1 50 34.0359 0.3664
1 1 54 62.5294 -2.1719
2 0 10 -245.7413 -11.7292
2 0 12 24.0362 -1.6384
2 0 14 22.2867 -4.0567
2 0 18 -43.2901 0.9307
2 0 22 -7.1030 -2.8562
2 0 24 -6.3515 1.7574
2 0 26 88.1461 -7.5388
2 0 28 91.1412 1.1668
2 0 30 -0.6374 -8.2079
2 0 32 -31.1368 3.5995
2 0 34 10.3681 -3.4801
2 0 36 35.8172 -7.7280
2 0 38 -19.0462 0.5491
2 0 40 -22.6381 5.3646
2 0 42 1.2150 -1.6008
2 0 44 15.6594 -0.0809
2 0 46 25.2475 -7.4766
2 0 48 -17.3521 -0.6070
2 0 50 -15.1941 -6.8144
2 0 52 0.4308 -4.1423
2 0 54 7.8858 -0.3942
2 0 56 9.7770 5.8885
2 1 5 22.4305 2.6721
2 1 7 169.8784 -4.2607
2 1 9 -12.9775 4.2305
2 1 11 50.5473 -0.4193
2 1 13 -60.8225 -6.0820
2 1 15 8.0992 3.7520
2 1 17 -13.3001 -1.5174
2 1 19 8.5123 3.3916
2 1 21 10.4339 0.9309
2 1 23 -47.6618 -2.0413
2 1 25 19.0426 0.3071
2 1 27 -13.9782 4.8803
2 1 29 17.5823 -3.9174
2 1 31 -4.8783 0.7858
2 1 33 -22.0016 2.6096
2 1 35 -12.9061 -0.7017
2 1 37 -6.1401 -0.9307
2 1 39 6.8156 1.0158
2 1 41 11.4955 -2.2360
2 1 43 -21.6300 6.7810
2 1 45 -0.8564 -1.3268
2 1 47 11.5242 -0.8892
2 1 49 15.9572 2.8399
2 1 51 10.9120 -2.2770
2 1 53 -7.6150 -2.6125
2 1 55 22.5870 1.9120
2 1 57 -1.2736 -0.6416
2 2 8 -104.5729 -0.7139
2 2 12 -19.1428 -0.2201
2 2 24 18.2312 0.4188
2 2 28 -9.2090 3.4523
2 2 32 -24.3395 2.5131
2 2 40 37.1498 0.2323
2 2 44 -14.1770 0.3013
2 2 48 -28.5330 1.5342
2 2 52 -14.7582 -5.5703
2 2 56 -8.5562 0.3474
3 0 1 192.2057 0.6880
3 0 5 76.1799 3.7220
3 0 7 77.2878 -6.2284
3 0 9 45.2381 -3.1881
3 0 11 14.5242 2.2553
3 0 15 -34.3705 3.7660
3 0 17 83.7388 -1.7944
3 0 19 13.6731 -5.5383
3 0 21 -36.5332 -0.8017
3 0 25 1.4270 0.3120
3 0 27 -0.8556 -2.5077
3 0 29 -4.1583 -2.1254
3 0 31 -0.9689 0.4973
3 0 33 -5.8135 -3.7273
3 0 35 8.3421 -0.5643
3 0 37 10.9895 -5.3124
3 0 39 9.7156 0.0259
3 0 41 -2.6056 1.4121
3 0 43 -22.2393 -5.0603
3 0 45 9.3108 2.0082
3 0 47 29.5709 -2.9097
3 0 49 -14.2534 -2.3632
3 0 51 39.4248 1.0865
3 0 53 -24.5306 -5.8971
3 0 55 20.5088 2.8936
3 0 57 18.1917 -1.0351
3 1 2 -205.9210 2.2497
3 1 4 -125.5935 1.5066
3 1 6 -5.3526 1.1407
3 1 8 -39.2186 -0.2525
3 1 10 9.4333 -3.1334
3 1 12 15.0712 0.1197
3 1 14 -0.9047 -1.4668
3 1 16 -18.2858 0.6345
3 1 18 -21.0000 -0.2539
3 1 20 2.3370 0.6012
3 1 22 26.1630 1.7776
3 1 24 20.1128 -0.4465
3 1 26 -8.2034 1.1402
3 1 28 20.5679 -0.4207
3 1 30 0.5744 -0.7871
3 1 32 -5.7188 0.8895
3 1 34 4.8621 -1.4957
3 1 36 -11.1606 0.3406
3 1 38 -0.3807 -0.0237
3 1 40 4.7333 0.3984
3 1 42 8.6038 1.7181
3 1 44 39.6190 0.0772
3 1 46 7.7116 1.7266
3 1 48 -7.7886 0.0868
3 1 50 -29.0625 -0.6240
3 1 52 -12.1093 -0.2141
3 1 54 -6.8129 -1.3228
3 1 56 -4.7679 1.2763
3 2 1 -38.0894 0.4204
3 2 5 47.9776 4.0290
3 2 7 26.6488 5.1538
3 2 9 83.7654 3.8435
3 2 11 -4.4062 1.7322
3 2 13 -105.6779 -6.7701
3 2 15 38.7673 0.8937
3 2 17 -8.2402 4.7830
3 2 19 21.3251 -2.4627
3 2 21 -9.4170 2.3992
3 2 23 -77.7877 5.1497
3 2 25 -14.3850 1.6992
3 2 27 -13.0446 -3.3234
3 2 29 -2.2182 -3.4240
3 2 31 16.2974 0.7371
3 2 33 0.3205 5.3545
3 2 35 5.8415 1.3459
3 2 37 -18.0533 -0.4094
3 2 39 -12.4759 3.8618
3 2 41 -2.7260 0.7416
3 2 43 -9.9285 -4.5501
3 2 45 14.9302 0.1591
3 2 47 3.2994 0.8721
3 2 49 12.1318 4.1395
3 2 51 -9.4661 2.1211
3 2 53 -3.6200 -3.0420
3 2 55 19.0600 1.6811
3 2 57 3.0028 -0.2498
3 3 6 -22.3463 -3.6513
3 3 10 110.9941 7.6844
3 3 14 28.9535 -3.9985
3 3 18 9.3471 -1.0807
3 3 22 20.4632 -0.5623
3 3 26 -5.6054 8.2841
3 3 30 15.9298 -4.2469
3 3 34 -33.5898 0.2382
3 3 38 5.2666 -0.0444
3 3 42 9.9199 4.2330
3 3 46 -0.6167 -3.2786
3 3 50 -29.7689 2.9983
3 3 54 17.0385 -0.2987
4 0 2 -182.5687 -0.8372
4 0 4 -95.8483 1.6160
4 0 8 -43.9703 3.7598
4 0 10 -12.5835 -2.7708
4 0 12 -1.7000 0.1008
4 0 14 60.4402 -1.4563
4 0 18 -15.6598 1.4578
4 0 20 -31.7888 2.3822
4 0 22 -30.3728 0.8490
4 0 24 46.1809 -1.8118
4 0 26 -18.4880 -3.1881
4 0 28 34.2131 -1.0851
4 0 30 22.1778 -2.9584
4 0 32 -13.9859 -3.3035
4 0 34 -35.8907 0.2076
4 0 36 40.5331 3.6933
4 0 38 34.4294 1.0794
4 0 40 40.5829 -7.4741
4 0 42 -37.7943 -0.7933
4 0 44 45.4796 -1.4738
4 0 46 -13.2473 -2.0912
4 0 48 -11.1720 2.1466
4 0 50 -9.0550 -0.9903
4 0 52 -26.3917 3.0159
4 0 54 45.0043 -0.4913
4 0 56 21.0861 -8.1073
4 1 1 -64.7719 -0.5947
4 1 5 56.4479 -1.3023
4 1 7 -38.8802 3.0169
4 1 9 -3.7922 -2.0249
4 1 11 -15.2761 2.9520
4 1 13 -27.3804 -1.5693
4 1 15 -68.5862 -0.3436
4 1 17 -23.6106 -4.1871
4 1 19 -11.5257 -0.3485
4 1 21 35.6957 0.3802
4 1 23 26.3632 4.2607
4 1 25 -24.9500 0.7190
4 1 27 15.0359 2.9314
4 1 29 0.0724 -2.2795
4 1 31 11.2581 -0.3079
4 1 33 -3.1854 -4.5027
4 1 35 -38.6729 -0.8659
4 1 37 -23.7492 -0.1903
4 1 39 8.3001 2.7639
4 1 41 -5.9680 0.5139
4 1 43 21.4865 1.6026
4 1 45 -0.7518 -1.5587
4 1 47 28.0155 0.9723
4 1 49 0.4133 -2.2950
4 1 51 -12.6415 0.3936
4 1 53 10.9882 0.7457
4 1 55 -7.3708 0.8589
4 1 57 -22.9757 -0.4450
4 2 2 44.2647 -1.3400
4 2 8 -24.1146 2.2244
4 2 10 88.6279 -11.7643
4 2 12 19.8909 -0.2442
4 2 14 -40.5887 -4.4491
4 2 18 -17.4191 2.6508
4 2 22 19.3345 -1.5238
4 2 24 -13.0836 1.4859
4 2 26 14.8079 -9.2170
4 2 28 -4.5069 -2.4064
4 2 30 0.5118 -8.7147
4 2 32 -9.0423 -0.5361
4 2 34 13.4979 -2.1110
4 2 36 -8.0916 7.7513
4 2 38 -1.1228 1.8737
4 2 40 1.9778 0.6715
4 2 42 21.2810 -2.5905
4 2 44 -40.9764 -0.5536
4 2 46 23.8885 -8.1204
4 2 48 -19.8624 0.6785
4 2 50 -6.3167 -5.1531
4 2 52 5.5515 3.3142
4 2 54 -39.7541 -0.9033
4 2 56 -1.5359 -0.9108
4 3 5 2.5822 -4.5362
4 3 7 39.9193 2.9151
4 3 9 19.1060 -2.4907
4 3 11 18.8341 -1.0502
4 3 15 -19.3234 -0.7423
4 3 17 38.7614 0.1718
4 3 19 -32.5849 -4.6090
4 3 21 -3.7353 -3.6038
4 3 23 -5.9128 3.2517
4 3 25 9.7405 -1.3230
4 3 27 -15.4471 -8.4537
4 3 29 4.6276 9.2502
4 3 31 -4.5573 -1.2617
4 3 33 -1.0564 -0.1568
4 3 35 10.5278 2.4204
4 3 37 15.2400 2.9036
4 3 39 -6.3925 3.6135
4 3 41 9.5658 -0.1466
4 3 43 -7.4826 -10.8704
4 3 45 1.5283 1.1439
4 3 47 8.1041 -1.2756
4 3 49 3.3655 -1.7160
4 3 51 4.0149 2.8596
4 3 53 -24.6863 6.6808
4 3 55 -1.8837 3.3945
4 3 57 -2.8000 1.4385
4 4 4 26.6019 2.5225
4 4 8 -102.4771 5.9713
4 4 12 -18.5185 1.9450
4 4 24 -11.0245 -3.7897
4 4 28 -30.3437 0.8664
4 4 32 5.3685 -5.9530
4 4 36 10.3489 3.1093
4 4 40 5.7452 -14.0714
4 4 44 19.4880 -1.2573
4 4 48 -8.5967 2.8929
4 4 52 -5.9339 4.2566
4 4 56 6.4312 -13.8143
5 0 1 -125.0771 0.4197
5 0 5 61.1398 0.7560
5 0 9 78.8060 -0.7046
5 0 11 47.3990 -2.1364
5 0 13 -80.4731 -2.5113
5 0 15 64.8775 3.2106
5 0 17 5.2063 -4.7917
5 0 19 -19.1520 1.1183
5 0 21 -16.2976 0.1408
5 0 25 28.2440 3.1582
5 0 27 -17.4763 -3.4215
5 0 29 -5.1790 -0.8886
5 0 31 -3.6082 2.4665
5 0 33 -5.5319 -6.1585
5 0 35 6.0218 1.7289
5 0 37 -21.5267 -0.2005
5 0 39 -26.2327 -4.3287
5 0 41 10.2532 2.4502
5 0 43 13.6954 -1.6265
5 0 45 -0.6253 -0.0498
5 0 47 21.1071 -0.8311
5 0 49 -2.0443 -3.7634
5 0 51 34.9906 0.1662
5 0 53 -24.6140 -0.9045
5 0 55 20.5209 -0.9364
5 0 57 -33.2303 0.2548
5 1 2 66.2489 0.8901
5 1 4 85.9688 0.3933
5 1 6 -80.9587 -0.0515
5 1 8 -20.4505 2.0130
5 1 10 -99.8060 0.4242
5 1 12 -24.5146 -1.5401
5 1 14 55.9489 -1.6898
5 1 16 -26.7135 -3.6589
5 1 18 18.8458 -0.5523
5 1 20 -26.2800 0.3296
5 1 22 -13.7074 -0.0812
5 1 24 18.0473 2.8287
5 1 26 12.0420 1.8448
5 1 28 14.0681 0.5748
5 1 30 13.5707 -1.9691
5 1 32 9.7041 -2.8392
5 1 34 -23.2731 -0.4453
5 1 36 -15.5572 -1.7202
5 1 38 -1.7900 0.0559
5 1 40 -21.8931 1.3007
5 1 42 4.4967 0.8912
5 1 44 -0.3385 1.4533
5 1 46 1.2288 -1.0394
5 1 48 12.3130 -0.6380
5 1 50 -1.4309 -0.2610
5 1 52 -10.6504 -0.7130
5 1 54 3.3297 -0.6112
5 1 56 -14.5721 -1.1281
5 2 1 110.9611 1.7159
5 2 5 32.6423 1.8156
5 2 9 26.7562 -5.1099
5 2 11 -8.2236 -2.5467
5 2 13 -103.7220 -0.3567
5 2 15 -39.9626 3.5805
5 2 17 43.3068 -2.8594
5 2 19 0.5030 1.7743
5 2 21 4.4191 -0.2475
5 2 25 -13.7232 -0.0440
5 2 27 3.8544 -1.0716
5 2 29 18.1129 -0.1462
5 2 31 8.2281 0.0293
5 2 33 -13.1053 -6.8856
5 2 35 16.0686 0.7795
5 2 37 16.6674 -0.1392
5 2 39 1.0950 -1.5518
5 2 41 -1.7187 2.3872
5 2 43 -10.3279 1.2417
5 2 45 0.5660 -0.4166
5 2 47 -8.3078 -2.5377
5 2 49 -2.9900 -6.3231
5 2 51 -27.8604 -0.6715
5 2 53 -3.9526 -2.3223
5 2 55 2.2163 1.6082
5 2 57 21.8551 0.6224
5 3 2 -2.6946 1.8838
5 3 4 4.1720 -0.0988
5 3 6 30.8285 3.4038
5 3 8 19.7122 -0.4976
5 3 10 50.3010 -3.0974
5 3 12 10.6899 1.6684
5 3 14 -12.2450 2.9169
5 3 16 107.0068 2.8143
5 3 18 -8.5304 -0.1902
5 3 20 -26.3755 0.1727
5 3 22 13.5037 0.3790
5 3 24 -12.3121 -1.1131
5 3 26 -16.9862 -3.4758
5 3 28 -13.3530 -0.0738
5 3 30 -6.7050 1.9725
5 3 32 -27.6394 2.0728
5 3 34 -2.2244 0.1224
5 3 36 -1.6087 1.2414
5 3 38 7.9031 0.4787
5 3 40 -4.2668 0.5253
5 3 42 3.0781 -2.3030
5 3 44 -3.5708 -0.3196
5 3 46 4.2726 1.7847
5 3 48 -24.3189 -0.2554
5 3 50 -11.3644 -1.7780
5 3 52 -6.7276 0.6054
5 3 54 0.0717 -0.2167
5 3 56 -14.0259 3.2242
5 4 3 -4.9377 6.1739
5 4 5 46.4402 0.3384
5 4 7 47.1329 -10.5064
5 4 9 32.6137 -2.4526
5 4 11 -8.9643 1.0509
5 4 13 -67.1393 7.2818
5 4 15 -3.4287 4.0148
5 4 17 13.4433 -8.0425
5 4 19 -19.6584 1.9640
5 4 21 -25.7341 -2.5477
5 4 23 -8.9980 -14.3927
5 4 25 31.4709 2.7912
5 4 27 -28.5896 3.0668
5 4 29 14.5639 6.4545
5 4 31 14.2281 4.6817
5 4 33 -3.5111 -10.2608
5 4 35 -22.4583 -0.1436
5 4 37 -18.8381 0.0262
5 4 39 -3.4288 -9.8352
5 4 41 -4.6235 2.4054
5 4 43 -15.0525 3.6817
5 4 45 25.7367 2.4659
5 4 47 29.8978 -0.4877
5 4 49 6.4871 -6.3981
5 4 51 18.6604 -0.5609
5 4 53 4.4474 1.6138
5 4 55 -0.3810 -1.9007
5 5 6 -63.2636 11.2575
5 5 10 132.7046 -13.0974
5 5 14 -25.9166 0.9183
5 5 18 -42.0558 3.1182
5 5 22 18.8079 4.8192
5 5 26 -32.4250 -8.7092
5 5 30 9.8926 9.2686
5 5 34 14.7274 -1.3625
5 5 38 -20.8819 -2.7863
5 5 42 3.3869 -2.6380
5 5 46 -14.6163 12.2290
5 5 50 1.9123 -3.4479
5 5 54 10.7201 -3.2806
6 0 2 52.6546 -0.5027
6 0 4 -154.2397 -3.0141
6 0 6 -137.3925 -5.0120
6 0 8 -9.3500 0.2799
6 0 10 168.6326 -6.8584
6 0 12 -18.7150 1.5071
6 0 14 -16.1447 -2.4808
6 0 16 71.1095 2.8835
6 0 18 -51.0386 1.0066
6 0 20 8.6169 -7.0494
6 0 22 -6.1034 -1.8469
6 0 24 19.9374 0.5485
6 0 26 5.2744 -4.7615
6 0 28 -41.2429 2.8003
6 0 30 28.0768 -4.8255
6 0 32 -29.5486 2.4000
6 0 34 -41.2551 -2.2126
6 0 36 27.7880 -5.4092
6 0 38 6.2609 0.6259
6 0 40 -36.1722 0.7426
6 0 42 46.2255 -1.0755
6 0 44 -36.8654 0.9308
6 0 46 27.0775 -4.7605
6 0 48 8.0976 1.2991
6 0 50 5.3473 -4.3363
6 0 52 35.3920 -2.3157
6 0 54 1.1405 -0.0793
6 0 56 29.0279 -1.0050
6 1 1 7.4528 -0.1481
6 1 3 -26.6819 3.5748
6 1 5 33.1100 0.1467
6 1 7 -137.0917 -0.1093
6 1 9 -18.4793 -2.1341
6 1 11 -68.5850 -0.8347
6 1 13 28.5252 -2.2640
6 1 15 -1.1006 -1.3716
6 1 17 -56.0393 1.2819
6 1 19 5.0515 3.2841
6 1 21 -1.2236 -2.4818
6 1 23 28.7017 0.8667
6 1 25 58.5086 -0.9350
6 1 27 -12.5158 -0.2718
6 1 29 -7.1907 -0.5705
6 1 31 8.7242 0.0593
6 1 33 3.4616 -0.5835
6 1 35 3.0233 2.2269
6 1 37 -9.4780 -3.5056
6 1 39 -21.5503 -0.3031
6 1 41 11.4650 0.1291
6 1 43 -24.7272 0.6281
6 1 45 25.3913 0.4170
6 1 47 -5.8385 0.9485
6 1 49 -41.4606 -0.6728
6 1 51 4.5350 0.5553
6 1 53 -35.0972 -2.7482
6 1 55 -44.1798 -0.1671
6 2 0 -183.2363 -4.6750
6 2 2 -36.2205 -0.5624
6 2 4 24.6547 0.2042
6 2 6 -95.0589 -1.4008
6 2 8 -21.9180 0.7909
6 2 12 -9.0731 0.4029
6 2 14 22.8959 0.4340
6 2 16 48.8455 -0.5830
6 2 18 -3.8906 -0.9446
6 2 22 -7.5390 0.9833
6 2 24 23.1496 1.1028
6 2 26 -8.1805 1.3516
6 2 28 -6.4917 -0.5163
6 2 30 -9.1450 1.1287
6 2 32 20.9215 -0.3502
6 2 34 15.7631 0.5773
6 2 36 7.3389 3.8155
6 2 38 8.3396 -0.2371
6 2 40 34.9147 0.2791
6 2 42 -30.1673 0.6032
6 2 44 -5.5793 0.1894
6 2 46 -3.0882 1.9839
6 2 48 24.3379 0.0475
6 2 50 -3.2070 0.3408
6 2 52 -14.9669 0.7237
6 2 54 6.1883 -0.0101
6 2 56 -2.6890 -4.4723
6 3 1 -45.6570 -0.9732
6 3 3 93.9054 2.2105
6 3 5 -3.7911 0.1898
6 3 7 -30.9741 0.1614
6 3 9 -42.7488 0.7900
6 3 11 -6.1928 2.0593
6 3 13 -14.5855 -4.6150
6 3 15 -34.4105 -0.9433
6 3 17 16.0466 1.0177
6 3 19 15.9840 1.5097
6 3 21 35.0659 0.8166
6 3 23 24.4644 -0.5596
6 3 25 -3.8004 0.4618
6 3 27 5.2717 3.2337
6 3 29 5.1631 -3.4958
6 3 31 -1.2418 -0.1980
6 3 33 -3.3221 0.4647
6 3 35 0.7862 -0.1157
6 3 37 -3.3000 -0.6124
6 3 39 33.8547 -0.7045
6 3 41 -5.6070 0.9169
6 3 43 33.4586 3.8116
6 3 45 -29.2576 -1.5188
6 3 47 47.1143 0.6433
6 3 49 8.2965 0.0301
6 3 51 -11.5024 -0.2406
6 3 53 -9.0769 -2.4244
6 3 55 19.7823 -0.2545
6 4 2 -1.6802 0.3077
6 4 4 15.6947 -2.6678
6 4 6 34.1723 -6.7368
6 4 8 -35.2425 -0.7495
6 4 10 -186.1731 -4.9289
6 4 12 23.4763 -1.8504
6 4 14 25.7965 -4.0407
6 4 16 27.1607 3.1145
6 4 18 37.1929 2.3808
6 4 20 -7.3938 -0.8884
6 4 22 8.7457 1.8334
6 4 24 -16.0581 0.3325
6 4 26 -11.0445 -7.0908
6 4 28 11.3092 -0.8574
6 4 30 8.7594 -6.8269
6 4 32 -6.9990 0.5026
6 4 34 0.4663 0.4786
6 4 36 16.9406 -1.0481
6 4 38 -10.2494 2.7885
6 4 40 16.2037 1.8319
6 4 42 -7.4565 -3.3776
6 4 44 3.0434 -0.5319
6 4 46 -25.4585 -4.9535
6 4 48 -43.4286 -0.6642
6 4 50 16.3950 -3.4974
6 4 52 2.3976 -1.4473
6 4 54 3.8349 0.2109
6 4 56 3.9762 2.4712
6 5 3 -90.4392 10.6616
6 5 5 4.8048 0.1931
6 5 7 -15.9057 -16.7209
6 5 9 -10.0522 6.2567
6 5 11 -23.3696 0.0199
6 5 13 -136.3376 -3.6210
6 5 15 -10.9256 5.4250
6 5 17 27.2116 7.9613
6 5 19 -27.3599 3.3022
6 5 21 -6.6482 -0.6651
6 5 23 16.9005 -14.5894
6 5 25 13.9482 -1.8736
6 5 27 5.8591 0.4642
6 5 29 13.7050 -2.8877
6 5 31 21.9506 2.8075
6 5 33 -8.5138 13.3171
6 5 35 -2.5318 1.6846
6 5 37 20.3679 -0.1813
6 5 39 -0.0289 -7.1165
6 5 41 4.6597 -4.1737
6 5 43 6.0785 2.2751
6 5 45 4.3053 -2.5946
6 5 47 -21.3854 -2.8679
6 5 49 22.2638 10.9498
6 5 51 -3.5888 -1.0413
6 5 53 13.7358 -0.8252
6 5 55 -19.7600 -0.9749
6 6 4 99.6896 -9.2648
6 6 8 19.4104 2.3999
6 6 12 -3.5777 1.0611
6 6 16 -66.2721 -2.8655
6 6 20 23.9043 -19.4861
6 6 24 2.3925 -1.4989
6 6 28 -26.5907 6.7608
6 6 32 8.6257 1.2504
6 6 36 -20.6440 -16.7894
6 6 40 -22.2506 -4.5451
6 6 44 14.5395 1.3638
6 6 48 1.0194 2.4546
6 6 52 -1.0928 -6.9045
7 0 5 49.1471 5.0124
7 0 7 116.4292 -4.7304
7 0 9 108.6414 -2.2558
7 0 11 -7.0741 1.0004
7 0 13 -80.1614 -8.6222
7 0 15 4.2923 0.3127
7 0 17 31.5212 -1.8593
7 0 19 12.4218 -2.8763
7 0 21 2.8671 2.4510
7 0 23 -28.6090 -2.1725
7 0 25 -20.0409 -1.3562
7 0 27 -4.6603 -3.5097
7 0 29 45.6891 -3.4107
7 0 31 16.8756 -1.9800
7 0 33 -37.1261 -2.1022
7 0 35 -0.4372 1.6526
7 0 37 -44.8707 -1.9551
7 0 39 -2.2653 0.8099
7 0 41 -21.0136 -0.5131
7 0 43 -4.2347 -5.6961
7 0 45 -13.6175 0.6227
7 0 47 12.3410 -2.8439
7 0 49 10.4459 -1.9631
7 0 51 -24.5705 2.8860
7 0 53 -5.4988 -5.1368
7 0 55 5.7079 1.9047
7 1 2 31.4330 -0.1327
7 1 4 66.5235 0.2860
7 1 6 -37.6308 -0.3395
7 1 8 -14.4666 -0.1613
7 1 10 39.3342 -0.7040
7 1 12 36.6709 -0.3138
7 1 14 -28.0424 -0.0345
7 1 16 -1.2605 2.7745
7 1 18 -14.9424 -0.8322
7 1 20 19.8864 0.6450
7 1 22 1.6425 0.7422
7 1 24 3.4994 -1.8461
7 1 26 -21.3495 0.9447
7 1 28 7.4633 -0.3959
7 1 30 -8.3841 -0.8839
7 1 32 -8.7060 1.5631
7 1 34 1.9793 -1.1523
7 1 36 -8.1451 -1.0662
7 1 38 -0.5862 0.8963
7 1 40 0.2207 -1.7655
7 1 42 -8.6950 0.6860
7 1 44 -12.9179 0.1551
7 1 46 6.5676 -0.9417
7 1 48 9.6951 0.5790
7 1 50 16.9106 -1.1619
7 1 52 -14.4640 -1.3948
7 1 54 0.0117 0.0959
7 1 56 -9.0126 0.3912
7 2 1 -18.8890 -0.6785
7 2 5 21.7414 1.4122
7 2 7 -53.4350 -0.4365
7 2 9 58.2832 1.0913
7 2 11 10.2770 -0.7213
7 2 13 -28.7377 3.9781
7 2 15 -6.5236 -0.0839
7 2 17 25.6293 1.9535
7 2 19 -15.4990 5.2941
7 2 21 -19.1452 1.0462
7 2 23 4.1761 1.0834
7 2 25 7.1680 -0.1239
7 2 27 -6.3119 1.4060
7 2 29 -1.3624 1.5139
7 2 31 4.9220 0.3692
7 2 33 -29.9801 0.4511
7 2 35 1.2151 1.2455
7 2 37 21.6132 3.7903
7 2 39 -3.5403 0.0765
7 2 41 21.8506 0.5096
7 2 43 -2.5522 3.3705
7 2 45 -0.6273 -0.1901
7 2 47 -7.0800 0.9490
7 2 49 -9.3207 -0.7992
7 2 51 -5.0816 0.6490
7 2 53 1.3339 2.3802
7 2 55 3.7830 -1.0803
7 3 2 64.5049 0.4622
7 3 4 56.2424 0.2523
7 3 6 3.9704 0.0111
7 3 8 41.8699 0.4418
7 3 10 -32.8337 -0.5529
7 3 12 25.5482 -2.0148
7 3 14 12.6521 0.7575
7 3 16 27.5722 -0.5223
7 3 18 -4.3009 2.9448
7 3 20 -19.0146 1.0246
7 3 22 -7.6846 -2.2762
7 3 24 -23.7136 -0.1386
7 3 26 3.3429 -3.0079
7 3 28 -19.6021 0.0262
7 3 30 0.1456 1.1258
7 3 32 7.0678 0.1819
7 3 34 5.4458 2.2815
7 3 36 -5.0939 -0.5338
7 3 38 7.2018 -1.4100
7 3 40 9.7814 -0.1091
7 3 42 0.7520 -1.6271
7 3 44 -22.4825 1.2278
7 3 46 -21.0307 -0.1116
7 3 48 -44.6648 0.7117
7 3 50 -5.6043 0.2360
7 3 52 -2.5084 -1.0497
7 3 54 -5.5847 -0.7473
7 3 56 -9.2350 -2.2865
7 4 1 83.7257 0.8894
7 4 3 -9.3643 -3.6294
7 4 5 9.6725 3.3435
7 4 7 9.4187 -2.5281
7 4 9 -66.2658 -0.2835
7 4 11 2.3919 -0.9538
7 4 13 -43.8509 -3.8160
7 4 15 14.9572 0.8926
7 4 17 -11.8240 0.8060
7 4 19 -39.1984 -0.6956
7 4 21 -13.8479 -0.3649
7 4 23 42.9848 1.3725
7 4 25 17.3476 0.4231
7 4 27 -22.1008 -3.0022
7 4 29 -20.8513 -2.1389
7 4 31 7.2200 -0.2834
7 4 33 34.3338 -0.6628
7 4 35 -17.7960 0.2563
7 4 37 -13.7507 -0.8059
7 4 39 -24.8353 0.9175
7 4 41 1.8298 0.8565
7 4 43 23.6714 -2.3868
7 4 45 24.7214 -0.8940
7 4 47 32.5525 -0.6128
7 4 49 -7.3360 -1.6387
7 4 51 -4.4673 0.6387
7 4 53 -29.5749 -2.6715
7 4 55 0.6315 0.9791
7 5 2 43.0382 -1.4351
7 5 4 -27.1509 -0.1874
7 5 6 -26.0957 -4.0148
7 5 8 8.9406 -0.3649
7 5 10 63.9013 7.1923
7 5 12 -7.8568 1.0351
7 5 14 -12.3654 -2.5371
7 5 16 31.3956 0.9892
7 5 18 -26.9179 -0.4495
7 5 20 -73.6558 -0.3334
7 5 22 -6.5303 -0.5361
7 5 24 -16.7607 -0.8125
7 5 26 3.5979 4.9349
7 5 28 0.1652 0.3243
7 5 30 -7.9631 -3.8684
7 5 32 -10.5061 1.1898
7 5 34 3.5044 -0.0642
7 5 36 10.0081 1.3586
7 5 38 -10.9795 0.4628
7 5 40 -6.7287 0.9476
7 5 42 8.1207 2.3971
7 5 44 12.7558 -0.4754
7 5 46 2.5477 -3.0862
7 5 48 -12.7079 -0.1648
7 5 50 -8.5744 1.3311
7 5 52 11.0384 1.3859
7 5 54 2.1751 0.7134
7 6 3 61.2116 -6.2631
7 6 5 -39.9215 4.4173
7 6 7 -48.1430 3.2009
7 6 9 -3.0332 4.3945
7 6 11 -27.5173 0.2354
7 6 13 18.8089 -10.8206
7 6 15 -5.4558 -0.2763
7 6 17 4.1068 1.4564
7 6 19 25.3197 -6.2442
7 6 21 27.6397 0.0169
7 6 23 -23.4644 3.3754
7 6 25 19.8190 1.3756
7 6 27 0.1338 -6.3221
7 6 29 -14.1257 -6.6015
7 6 31 -2.7663 0.1147
7 6 33 -10.4032 2.1398
7 6 35 2.3781 -0.1384
7 6 37 -6.5816 -3.1556
7 6 39 26.6286 2.1865
7 6 41 -6.5286 -0.6753
7 6 43 -7.1210 -9.5118
7 6 45 3.1014 -1.9606
7 6 47 -19.4448 0.6244
7 6 49 -11.4116 2.7997
7 6 51 -2.2902 2.8278
7 6 53 0.7039 -4.7919
7 6 55 -20.8063 0.5231
7 7 6 91.3551 -12.7027
7 7 10 4.7148 21.9055
7 7 14 13.2752 -9.6837
7 7 18 -18.0802 -7.3748
7 7 22 -11.0885 -0.7451
7 7 26 -19.0770 22.0975
7 7 30 -3.1643 -15.7556
7 7 34 10.0809 -3.1254
7 7 38 -10.3893 3.3839
7 7 42 -10.0682 11.9664
7 7 46 -7.6476 -12.6989
7 7 50 -19.6525 6.1386
7 7 54 12.7714 1.6890
8 0 2 277.6638 -0.7598
8 0 8 -17.0582 2.7570
8 0 10 37.2394 -4.3151
8 0 12 -14.4386 -0.3792
8 0 14 11.4729 -2.4791
8 0 16 87.7244 -5.5081
8 0 18 17.3532 2.1524
8 0 22 1.4374 0.7180
8 0 24 -1.3177 -1.3486
8 0 26 8.2926 -4.3731
8 0 28 -9.7424 0.2810
8 0 30 -1.9646 -4.0819
8 0 32 48.8141 -1.1669
8 0 34 -22.2488 -0.2769
8 0 36 28.7707 -0.9311
8 0 38 -15.6744 1.6253
8 0 40 5.0267 -4.0402
8 0 42 -0.4921 -0.5070
8 0 44 -2.9400 -0.7039
8 0 46 23.7990 -2.5333
8 0 48 8.8337 1.1849
8 0 50 12.8355 -3.0692
8 0 52 1.8532 -0.0338
8 0 54 14.5282 0.0468
8 0 56 -7.1392 -4.2318
8 1 1 81.3668 -0.2516
8 1 3 -136.8306 -0.1602
8 1 5 -11.6891 0.3112
8 1 7 65.4995 -3.5496
8 1 9 -28.4270 2.1834
8 1 11 -21.4574 -0.9025
8 1 13 36.1051 2.2679
8 1 15 34.4696 1.0581
8 1 17 6.7347 1.0718
8 1 19 24.3172 -2.7639
8 1 21 9.9074 1.2495
8 1 23 -13.4929 -2.1665
8 1 25 26.3727 0.3242
8 1 27 15.1937 -1.5491
8 1 29 -41.2872 1.0740
8 1 31 28.7255 -0.2810
8 1 33 -13.8478 1.0568
8 1 35 -16.4814 -0.8585
8 1 37 -25.4359 2.0799
8 1 39 12.8584 -0.8140
8 1 41 25.0488 -0.3503
8 1 43 31.4268 -2.4176
8 1 45 -10.8904 0.2610
8 1 47 16.8940 -1.7914
8 1 49 -11.5196 1.5275
8 1 51 18.3064 -0.2678
8 1 53 23.3423 0.2889
8 1 55 -24.3309 0.2727
8 2 2 1.5496 -0.6878
8 2 4 -115.6502 -3.5076
8 2 6 -15.6248 -0.2870
8 2 8 -64.0789 -0.9027
8 2 10 43.1637 6.0964
8 2 12 -3.7878 0.0525
8 2 14 46.5002 2.9247
8 2 16 45.6548 4.8558
8 2 18 -1.2121 -1.0162
8 2 20 31.4359 -3.1661
8 2 22 -14.8670 -0.0837
8 2 24 24.4751 0.7636
8 2 26 13.4798 4.7066
8 2 28 -10.5282 1.2743
8 2 30 18.8174 4.9528
8 2 32 4.1717 1.6660
8 2 34 -3.2713 0.4553
8 2 36 0.0974 -2.9145
8 2 38 3.3188 -1.0513
8 2 40 -11.4052 3.1551
8 2 42 0.4777 1.3796
8 2 44 -29.8307 0.8872
8 2 46 -1.6953 4.6446
8 2 48 5.3064 -0.0655
8 2 50 0.3181 1.7263
8 2 52 -15.2182 -0.7761
8 2 54 11.4534 0.1626
8 2 56 10.8698 1.3357
8 3 1 10.6372 -0.9393
8 3 3 -15.5964 7.5396
8 3 5 -3.6990 0.3080
8 3 7 -51.8073 -0.9770
8 3 9 -20.9834 -1.2499
8 3 11 -14.0468 0.8538
8 3 13 -16.9993 -3.9384
8 3 15 2.1223 0.0409
8 3 17 -26.0916 -1.0571
8 3 19 9.9398 0.9330
8 3 21 -11.0391 0.0982
8 3 23 18.6600 1.8391
8 3 25 17.2314 -0.3726
8 3 27 -1.3041 2.2756
8 3 29 12.1385 -2.8264
8 3 31 -14.3229 0.5952
8 3 33 -21.9165 -1.9282
8 3 35 -11.1106 -0.0327
8 3 37 -12.5055 -0.9793
8 3 39 37.0177 0.7600
8 3 41 -2.1828 0.1508
8 3 43 10.5352 2.4224
8 3 45 16.7930 -0.9177
8 3 47 -25.1719 1.3525
8 3 49 7.9019 -0.9175
8 3 51 1.5653 0.0936
8 3 53 2.2856 -2.7037
8 3 55 -12.8783 -0.2920
8 4 0 -276.5935 -6.3931
8 4 2 -112.6496 -0.2514
8 4 4 -24.9928 0.4378
8 4 6 68.9403 0.2733
8 4 8 60.9923 -0.5007
8 4 10 -72.0480 2.8056
8 4 12 11.4581 0.4685
8 4 14 12.0785 -1.2945
8 4 16 -72.1845 6.2373
8 4 18 -1.1584 -0.9578
8 4 20 0.3681 1.3609
8 4 22 9.7909 0.4503
8 4 24 19.8948 1.5203
8 4 26 -1.1942 -0.5149
8 4 28 7.1155 0.6686
8 4 30 -9.4820 -1.0105
8 4 32 -2.7836 1.5826
8 4 34 22.5296 0.5009
8 4 36 16.6428 0.3244
8 4 38 3.9100 -0.1557
8 4 40 -2.4673 4.5818
8 4 42 -5.8029 -0.5965
8 4 44 21.8239 1.0889
8 4 46 -25.6338 0.4796
8 4 48 -8.0745 -0.3250
8 4 50 2.5998 0.3207
8 4 52 43.9621 0.2537
8 4 54 1.6396 -0.5044
8 5 1 -31.3598 -1.2809
8 5 3 -57.6382 3.3329
8 5 5 -33.7258 -0.4398
8 5 7 8.2092 2.8609
8 5 9 -4.6848 -2.0140
8 5 11 -24.4080 -0.2262
8 5 13 39.9033 1.5620
8 5 15 -24.2355 -0.5454
8 5 17 -9.3428 0.5066
8 5 19 -18.2363 0.2879
8 5 21 8.1427 -0.4389
8 5 23 -3.6492 0.9946
8 5 25 -2.9855 -0.4808
8 5 27 -7.6804 -0.8475
8 5 29 0.4934 1.4984
8 5 31 6.2071 -0.1910
8 5 33 -1.2085 -0.1245
8 5 35 8.3579 0.6453
8 5 37 19.1381 -0.2006
8 5 39 -3.7821 0.8494
8 5 41 14.9323 0.1395
8 5 43 -5.9630 -0.0822
8 5 45 -8.8012 0.7467
8 5 47 30.7540 1.0852
8 5 49 22.7792 -0.7156
8 5 51 9.0559 0.5742
8 5 53 4.6894 -1.2268
8 5 55 17.0764 0.5074
8 6 2 -39.6555 0.6572
8 6 4 135.3559 2.0557
8 6 6 45.7127 -3.6816
8 6 8 43.3771 -1.8272
8 6 10 37.0421 -4.5145
8 6 12 14.1151 -0.2258
8 6 14 -92.3403 -2.2483
8 6 16 -9.8809 -1.5582
8 6 18 -0.5644 1.4733
8 6 20 -25.4916 -2.0229
8 6 22 5.7577 1.0755
8 6 24 4.2670 -1.4255
8 6 26 13.6825 -4.9763
8 6 28 1.2080 0.4360
8 6 30 7.8483 -5.0983
8 6 32 -8.6127 -1.6756
8 6 34 22.5883 0.1582
8 6 36 -12.9533 -1.6933
8 6 38 12.8664 1.8912
8 6 40 23.9329 -1.5187
8 6 42 22.0356 -2.2998
8 6 44 15.0218 -0.0837
8 6 46 12.7221 -3.8647
8 6 48 -5.6693 -0.8518
8 6 50 24.2909 -2.5520
8 6 52 -8.5088 0.1476
8 6 54 -27.3926 0.7320
8 7 3 41.0790 -7.2675
8 7 5 10.0558 -4.0109
8 7 7 81.3332 0.0704
8 7 9 48.0068 -0.8365
8 7 11 5.4260 -0.6574
8 7 13 -57.0789 7.7093
8 7 15 -36.4879 0.8578
8 7 17 21.6573 -2.0405
8 7 19 12.9398 0.3016
8 7 21 19.0092 -4.4094
8 7 23 -15.1629 3.2536
8 7 25 22.7149 -1.1049
8 7 27 2.6255 -5.7896
8 7 29 -9.6195 6.2466
8 7 31 -12.6438 -1.1158
8 7 33 11.5897 0.6724
8 7 35 -9.1130 2.8398
8 7 37 -22.7008 -1.0696
8 7 39 -7.2590 3.7650
8 7 41 3.9367 -1.9406
8 7 43 -12.1438 -5.5809
8 7 45 -8.4974 1.4108
8 7 47 -26.0594 -0.4177
8 7 49 -12.8973 1.7313
8 7 51 8.5182 1.8078
8 7 53 -10.6221 4.0651
8 8 4 -9.3506 -2.4138
8 8 8 15.0510 2.6020
8 8 12 41.0047 2.4220
8 8 16 13.5111 -5.8537
8 8 20 -4.2749 -5.7808
8 8 24 -25.7606 -1.0758
8 8 28 3.4310 3.6291
8 8 32 -3.2673 -0.8036
8 8 36 -15.6206 -4.5034
8 8 40 25.6564 -4.8586
8 8 44 -10.1542 1.4593
8 8 48 6.2610 1.5844
8 8 52 -20.5794 -1.9287
9 0 1 83.6684 -0.1681
9 0 5 69.9381 0.7747
9 0 9 47.6077 -1.8886
9 0 11 -0.1861 -0.6172
9 0 13 -12.5415 -2.2389
9 0 15 1.9963 4.1193
9 0 17 -53.8752 -4.9242
9 0 19 39.2421 -1.0107
9 0 21 -37.3455 -1.6492
9 0 25 -2.5582 2.5603
9 0 27 9.5902 -2.0659
9 0 29 -19.9904 0.0932
9 0 31 20.3617 2.4860
9 0 33 -7.8903 -6.7543
9 0 35 -5.4742 0.0775
9 0 37 5.7184 -2.5877
9 0 39 -1.8217 -4.1831
9 0 41 5.0216 2.6236
9 0 43 13.6646 -2.1598
9 0 45 -9.4190 1.4334
9 0 47 8.9670 -1.1461
9 0 49 -22.6189 -4.8239
9 0 51 -8.6391 0.0609
9 0 53 10.6124 -1.4955
9 0 55 4.9689 -1.9166
9 1 2 -48.9035 0.3382
9 1 4 -42.5182 -1.2728
9 1 6 -2.0975 -1.9585
9 1 8 -1.5086 -0.6386
9 1 10 27.9894 -2.1657
9 1 12 -4.1962 1.3934
9 1 14 -3.6620 1.2689
9 1 16 -26.3498 0.0964
9 1 18 38.4084 2.3781
9 1 20 21.1867 -0.7832
9 1 22 -9.5592 -1.3155
9 1 24 20.4437 0.5991
9 1 26 18.8530 -4.1844
9 1 28 12.2568 0.3736
9 1 30 -3.6324 1.3827
9 1 32 -16.1286 -0.5479
9 1 34 -14.6796 1.8122
9 1 36 -13.1879 0.4413
9 1 38 -12.7493 -1.0570
9 1 40 10.2981 -0.1023
9 1 42 32.7357 -2.2011
9 1 44 35.7579 -1.2386
9 1 46 19.6305 1.1212
9 1 48 -6.3281 -0.0741
9 1 50 -21.2154 -0.2834
9 1 52 -5.9627 1.0734
9 1 54 -31.2047 -0.0503
9 2 1 -132.5458 1.2492
9 2 3 -131.6764 -1.4010
9 2 5 -3.2980 1.2665
9 2 9 32.5087 2.8734
9 2 11 -32.7547 2.9004
9 2 13 26.2934 -0.3847
9 2 15 -28.1735 -1.9011
9 2 17 -28.0853 6.4688
9 2 19 -33.6163 -4.7511
9 2 21 -2.0586 -0.8449
9 2 25 -3.6441 -1.7727
9 2 27 -13.9803 1.3633
9 2 29 15.7483 0.4500
9 2 31 -0.6199 -1.6544
9 2 33 -15.5106 8.0825
9 2 35 -0.7989 -1.6238
9 2 37 -27.9575 -1.6801
9 2 39 -11.2391 6.0762
9 2 41 6.6468 -2.1357
9 2 43 -1.4316 -0.3787
9 2 45 0.8059 0.5637
9 2 47 1.0934 1.6271
9 2 49 7.1848 4.9853
9 2 51 3.0399 0.5608
9 2 53 -6.7895 -1.4537
9 2 55 10.6239 0.7382
9 3 2 -6.9531 -1.0328
9 3 4 23.7041 3.3545
9 3 6 -28.1029 -3.7298
9 3 8 -6.8397 0.8739
9 3 10 21.9662 4.8362
9 3 12 19.5476 -1.0137
9 3 14 13.8347 -1.6646
9 3 16 7.2130 -1.8974
9 3 18 7.8678 -3.0402
9 3 20 15.8356 -0.1627
9 3 22 -11.4905 1.3130
9 3 24 -27.7050 2.1875
9 3 26 16.7194 5.7912
9 3 28 9.8992 0.5210
9 3 30 2.9168 -3.6345
9 3 32 19.4701 -1.9860
9 3 34 18.4459 -1.6092
9 3 36 -6.9448 -1.1387
9 3 38 12.0724 2.0386
9 3 40 18.7185 1.5198
9 3 42 3.2445 2.3184
9 3 44 -34.1532 1.0736
9 3 46 -7.8526 -3.1027
9 3 48 -28.9126 -0.6084
9 3 50 -0.7684 0.7402
9 3 52 24.8335 -1.5516
9 3 54 -32.1254 1.5875
9 4 1 32.6957 0.7419
9 4 3 98.6970 -3.2631
9 4 5 -68.7368 -0.8602
9 4 7 -49.4328 3.4864
9 4 9 -53.2400 0.9519
9 4 11 25.0861 -1.8020
9 4 13 5.0763 -1.1813
9 4 15 7.6914 -1.9034
9 4 17 12.7347 6.8735
9 4 19 -19.4725 2.1514
9 4 21 -4.9733 2.0995
9 4 23 5.6326 7.0672
9 4 25 -18.9500 -2.5007
9 4 27 -15.5880 -1.4274
9 4 29 -20.5683 -3.7323
9 4 31 -2.5736 -2.6346
9 4 33 -4.8743 5.2064
9 4 35 -24.1543 0.6939
9 4 37 16.9709 2.3012
9 4 39 -8.9581 5.7829
9 4 41 -3.4438 -1.0230
9 4 43 7.5221 -0.2753
9 4 45 -0.8958 -2.3312
9 4 47 2.2729 0.2914
9 4 49 -18.8180 2.9454
9 4 51 -34.7107 -0.0244
9 4 53 3.4937 -0.4393
9 4 55 -0.3043 -0.6605
9 5 2 50.5559 1.1503
9 5 4 -13.2109 -0.0103
9 5 6 51.9899 -2.0958
9 5 8 5.6435 -0.1776
9 5 10 -63.9804 3.1276
9 5 12 48.8195 -0.2923
9 5 14 18.9832 0.6674
9 5 16 -27.0871 0.6959
9 5 18 -8.3467 -1.6780
9 5 20 16.5624 0.5470
9 5 22 -12.6110 -1.3701
9 5 24 -4.6879 -1.4872
9 5 26 10.6311 2.2547
9 5 28 -6.8768 -0.3692
9 5 30 -2.9207 -2.4806
9 5 32 -6.6826 1.2442
9 5 34 -3.4502 0.2320
9 5 36 -18.9794 0.8225
9 5 38 0.2870 1.3735
9 5 40 -11.3081 -0.5014
9 5 42 -0.5038 0.4755
9 5 44 12.4852 -0.2078
9 5 46 -13.1041 -4.2051
9 5 48 -12.3421 0.5228
9 5 50 -17.1137 1.2418
9 5 52 12.6547 -0.0548
9 5 54 -1.2684 -0.1600
9 6 1 -7.6395 1.8422
9 6 3 64.3118 -0.2032
9 6 5 9.8303 -0.8164
9 6 7 -31.9561 -3.3751
9 6 9 -25.8964 -1.2734
9 6 11 -12.6766 -0.4168
9 6 13 -19.4786 -1.1548
9 6 15 33.7030 0.8989
9 6 17 -5.1189 -2.8678
9 6 19 21.2938 0.4258
9 6 21 16.1834 0.1302
9 6 23 11.2774 -4.9930
9 6 25 8.4948 0.4475
9 6 27 2.4988 -1.3825
9 6 29 -36.4811 -0.4295
9 6 31 -20.2274 0.3730
9 6 33 -9.1613 -4.2093
9 6 35 15.7616 0.7647
9 6 37 10.2095 -0.8091
9 6 39 -3.4271 -2.4468
9 6 41 -6.8889 0.9523
9 6 43 -22.0189 -1.1955
9 6 45 -7.0107 0.4541
9 6 47 -19.8976 -1.0799
9 6 49 -8.1913 -3.3426
9 6 51 21.2027 -0.7245
9 6 53 -24.2636 -0.7696
9 7 2 11.6514 1.6946
9 7 4 -14.9936 -2.0646
9 7 6 21.1716 5.2478
9 7 8 -3.4288 -0.2882
9 7 10 8.9688 -6.4002
9 7 12 -13.5257 0.2914
9 7 14 5.6580 -0.8251
9 7 16 0.1660 0.4683
9 7 18 -16.1128 1.0866
9 7 20 16.3581 0.1153
9 7 22 -6.4400 3.6097
9 7 24 13.5249 -1.8464
9 7 26 19.2525 -4.2767
9 7 28 -6.7559 -0.1911
9 7 30 -11.2701 4.2558
9 7 32 -1.9931 1.8720
9 7 34 2.7766 -1.7843
9 7 36 17.5053 1.0919
9 7 38 -20.7384 -0.7982
9 7 40 -0.0109 0.5728
9 7 42 -5.8285 -1.2183
9 7 44 4.3460 -0.4460
9 7 46 -7.8280 5.7204
9 7 48 24.5489 0.0776
9 7 50 -34.7572 -2.1737
9 7 52 -5.8372 2.0441
9 7 54 22.9829 -2.2287
9 8 3 59.4743 -2.1271
9 8 5 25.4488 1.5288
9 8 7 -43.3985 -3.9418
9 8 9 -56.4491 -0.8694
9 8 11 8.4972 1.6557
9 8 13 -22.5007 -2.2483
9 8 15 -32.0697 2.0871
9 8 17 22.7371 -1.1293
9 8 19 33.0801 0.2943
9 8 21 3.6614 0.6513
9 8 23 0.6777 -3.6160
9 8 25 -18.4389 -0.1919
9 8 27 -3.8731 0.7603
9 8 29 -3.4939 0.3369
9 8 31 -14.3101 1.0909
9 8 33 21.9113 -1.1992
9 8 35 -0.4669 0.1483
9 8 37 -15.0075 -0.6803
9 8 39 9.8888 -2.3584
9 8 41 -4.1382 0.2783
9 8 43 -2.3916 -0.5722
9 8 45 13.6144 1.4363
9 8 47 -18.4674 -0.5378
9 8 49 20.4883 -1.2221
9 8 51 -13.7521 0.9318
9 8 53 -2.1431 -0.3818
9 9 6 -15.8996 17.1197
9 9 10 14.7106 -20.8108
9 9 14 -14.4131 4.0251
9 9 18 13.0319 4.9774
9 9 22 0.5436 4.5348
9 9 26 0.0651 -15.7041
9 9 30 -9.4096 14.0500
9 9 34 33.0129 -0.5437
9 9 38 -1.6666 -3.4327
9 9 42 -7.3219 -6.4157
9 9 46 5.1457 16.4947
10 0 0 59.0542 3.9680
10 0 2 20.4203 -1.0134
10 0 4 -70.2698 -1.8405
10 0 6 -112.5112 -2.8320
10 0 8 4.3998 2.7509
10 0 10 -22.8719 -4.9160
10 0 12 7.3615 0.6419
10 0 14 37.8548 -2.2023
10 0 16 26.1064 -3.9225
10 0 18 38.1260 1.0401
10 0 20 35.2074 -5.1817
10 0 22 3.2543 -0.0752
10 0 24 10.2226 -0.1151
10 0 26 14.1420 -3.0768
10 0 28 -6.5071 1.6988
10 0 30 10.3759 -4.0216
10 0 32 14.2856 0.1673
10 0 34 -32.5529 -0.8095
10 0 36 -4.6109 -3.8137
10 0 38 65.4529 1.1003
10 0 40 -1.0820 -2.7528
10 0 42 -31.8421 -0.8204
10 0 44 15.0483 -0.3787
10 0 46 21.0362 -3.6514
10 0 48 14.0679 1.8296
10 0 50 -60.9451 -2.1574
10 0 52 2.4814 -0.5824
10 0 54 0.7749 0.4062
10 1 1 17.9306 0.0474
10 1 3 13.3458 0.8886
10 1 5 22.2893 -0.2308
10 1 7 26.8135 -0.2515
10 1 9 -32.7207 -0.9531
10 1 11 31.1466 1.8668
10 1 13 3.8196 -2.1622
10 1 15 -16.8755 -0.5750
10 1 17 6.6247 0.0239
10 1 19 31.8659 0.7674
10 1 21 8.2549 0.3507
10 1 23 19.5305 1.3345
10 1 25 -17.4853 -0.3961
10 1 27 -17.9363 1.0099
10 1 29 14.6006 -1.7684
10 1 31 20.8968 0.5373
10 1 33 -2.4001 -2.0489
10 1 35 -21.2941 -0.1329
10 1 37 8.0503 -0.9264
10 1 39 1.8081 -0.3091
10 1 41 12.0696 0.4856
10 1 43 -14.4262 1.1419
10 1 45 65.4112 -0.7861
10 1 47 41.7939 0.8148
10 1 49 1.8781 -2.0717
10 1 51 72.6848 0.3703
10 1 53 -22.6844 -1.5314
10 1 55 61.2258 0.6720
10 2 2 35.6629 -0.4994
10 2 4 -11.6075 2.4382
10 2 6 -7.4112 1.4292
10 2 8 -38.7988 0.2287
10 2 10 -57.4435 0.1159
10 2 12 0.6931 -1.4219
10 2 14 23.9042 0.5858
10 2 16 -7.2837 2.9222
10 2 18 13.0374 0.0589
10 2 20 20.8494 5.8402
10 2 22 7.9542 0.0479
10 2 24 -3.0228 0.7466
10 2 26 26.3426 0.1632
10 2 28 -1.9156 -2.5584
10 2 30 11.5955 0.6158
10 2 32 12.9365 -0.0072
10 2 34 26.5673 0.5977
10 2 36 18.4844 4.9784
10 2 38 -23.6055 -0.1534
10 2 40 -8.3339 3.4390
10 2 42 6.0154 0.3684
10 2 44 -13.6818 -0.5473
10 2 46 -6.1804 0.0661
10 2 48 -6.6772 -0.9675
10 2 50 27.0938 0.5798
10 2 52 -14.9931 0.9385
10 2 54 -9.2047 -0.0320
10 3 1 68.5028 -0.3841
10 3 3 56.0542 -2.3484
10 3 5 -14.2616 -1.4926
10 3 7 31.2292 -0.1265
10 3 9 23.1163 0.4670
10 3 11 -46.6904 0.7769
10 3 13 -0.7494 3.3433
10 3 15 -16.5997 0.1840
10 3 17 -41.4125 2.0040
10 3 19 -27.4060 -1.9725
10 3 21 0.9171 0.1863
10 3 23 -23.0036 -1.5798
10 3 25 24.9726 -0.7258
10 3 27 12.2676 -0.7361
10 3 29 -6.9157 1.3484
10 3 31 2.5757 0.8117
10 3 33 -25.6755 1.6642
10 3 35 0.8162 -0.0729
10 3 37 27.8691 1.6404
10 3 39 8.1978 -1.7023
10 3 41 -20.4330 -0.1181
10 3 43 -22.0317 -2.2890
10 3 45 -7.8974 0.1185
10 3 47 -43.6849 -0.2882
10 3 49 -13.8562 0.0099
10 3 51 -0.7547 0.7473
10 3 53 23.2975 0.6868
10 4 0 -123.4808 -3.0833
10 4 2 -17.3516 -1.4167
10 4 4 -5.1562 -0.3791
10 4 6 80.1463 0.5088
10 4 8 -8.3753 -0.5899
10 4 10 74.8929 2.6892
10 4 12 26.7873 -0.8270
10 4 14 10.1291 3.2903
10 4 16 10.3924 -0.0829
10 4 18 -27.4064 -1.3674
10 4 20 22.2135 2.4217
10 4 22 -1.4375 -1.8724
10 4 24 27.8400 0.0293
10 4 26 15.1090 2.8922
10 4 28 -7.6636 -0.7012
10 4 30 -4.0279 3.3125
10 4 32 1.7992 -0.7004
10 4 34 -2.1086 -1.2416
10 4 36 6.2219 1.3942
10 4 38 -11.2256 -1.6393
10 4 40 3.6436 0.3183
10 4 42 31.9080 1.6562
10 4 44 -18.9046 0.0146
10 4 46 7.8329 2.7469
10 4 48 35.7811 -0.9063
10 4 50 16.4742 0.8398
10 4 52 16.9007 0.4852
10 4 54 25.0468 0.4688
10 5 1 -10.3785 -2.7439
10 5 3 -25.8270 -0.4839
10 5 5 -1.3251 -0.5703
10 5 7 24.8778 0.8830
10 5 9 19.3665 0.4188
10 5 11 20.4958 0.4748
10 5 13 0.2463 -0.4958
10 5 15 -10.7075 -0.4917
10 5 17 18.7566 -1.7778
10 5 19 15.4582 0.0239
10 5 21 -16.1245 -0.2977
10 5 23 -4.9137 1.2108
10 5 25 -3.2988 0.7814
10 5 27 -3.1078 -0.7299
10 5 29 34.3202 0.4183
10 5 31 -4.6443 -1.1340
10 5 33 24.2341 -0.5382
10 5 35 -2.2809 0.1748
10 5 37 -37.5184 -0.2894
10 5 39 -5.1317 1.3554
10 5 41 37.5546 0.2544
10 5 43 18.2797 -0.1285
10 5 45 -1.7217 -0.1960
10 5 47 3.5051 -0.3856
10 5 49 11.2835 -0.2786
10 5 51 -0.6999 -0.1634
10 5 53 7.8416 1.4009
10 6 0 -34.6090 -4.2394
10 6 2 16.9261 -0.4246
10 6 4 21.6479 0.1908
10 6 6 38.5458 0.7025
10 6 8 57.1170 1.0215
10 6 10 -34.8179 -0.1635
10 6 12 -5.3159 -0.4648
10 6 14 -35.6923 -0.6080
10 6 16 -37.6334 0.2074
10 6 18 2.8749 0.3814
10 6 20 11.1742 1.2125
10 6 22 28.6573 -1.1020
10 6 24 7.1087 -0.4185
10 6 26 15.3720 -0.4723
10 6 28 19.9621 -0.6448
10 6 30 -17.6966 -0.6648
10 6 32 11.4105 -0.2150
10 6 34 15.2931 -0.4833
10 6 36 -2.1771 0.5841
10 6 38 -7.3431 0.0073
10 6 40 24.6838 -0.0783
10 6 42 8.7829 0.3356
10 6 44 52.6491 -0.7106
10 6 46 5.3150 -0.8799
10 6 48 -19.4909 0.1164
10 6 50 12.5543 -0.0296
10 6 52 31.9791 0.1994
10 6 54 -27.7506 0.0461
10 7 1 -40.7628 -0.9338
10 7 3 -41.2392 2.2592
10 7 5 37.2292 0.2306
10 7 7 64.6351 0.8014
10 7 9 18.5559 0.0660
10 7 11 -16.3435 0.2492
10 7 13 11.6772 0.8447
10 7 15 -2.4166 0.6203
10 7 17 -23.8048 -2.2366
10 7 19 -12.9743 0.8029
10 7 21 15.5336 -1.2854
10 7 23 -30.7616 0.7829
10 7 25 19.0282 0.2128
10 7 27 2.1602 1.0175
10 7 29 -24.6241 0.2733
10 7 31 -5.4315 -0.6627
10 7 33 14.0663 -0.7706
10 7 35 2.4770 0.6760
10 7 37 -26.7018 -0.7621
10 7 39 20.2981 2.0171
10 7 41 -18.6434 -0.4987
10 7 43 3.6560 1.3974
10 7 45 -9.9288 0.2639
10 7 47 15.7716 -0.3140
10 7 49 -8.1053 -0.0750
10 7 51 -19.7902 -0.5500
10 7 53 -21.0800 0.3420
10 8 2 -23.2177 -0.2482
10 8 4 24.1734 0.0986
10 8 6 -6.9740 -1.5260
10 8 8 60.1574 0.3873
10 8 10 35.4716 -4.9854
10 8 12 43.8351 -0.7696
10 8 14 24.8319 -2.1908
10 8 16 28.1564 -0.7858
10 8 18 16.0652 0.8080
10 8 20 -19.2225 0.2244
10 8 22 -7.7809 0.2558
10 8 24 -7.1475 0.7603
10 8 26 -7.7569 -3.4842
10 8 28 16.8026 0.1689
10 8 30 15.0087 -4.1264
10 8 32 -6.7906 0.1394
10 8 34 0.2220 -0.3875
10 8 36 -20.3245 -0.1883
10 8 38 -7.0250 1.2046
10 8 40 4.6731 -0.2751
10 8 42 -5.4683 -1.8495
10 8 44 6.6025 -0.4661
10 8 46 6.3678 -3.3096
10 8 48 -19.3327 0.6963
10 8 50 -1.4497 -1.7736
10 8 52 -40.2827 0.2660
10 9 3 -45.2942 -4.1178
10 9 5 -18.5280 -2.2563
10 9 7 4.8550 -2.2779
10 9 9 -33.0071 2.7001
10 9 11 -37.9573 0.0975
10 9 13 -11.0938 4.6729
10 9 15 -16.4073 1.9109
10 9 17 -30.2084 -2.3982
10 9 19 -0.2830 -1.2680
10 9 21 13.1758 -1.0412
10 9 23 -24.5651 -0.6590
10 9 25 -44.6970 0.7318
10 9 27 -7.6235 -1.0910
10 9 29 -25.5045 2.2955
10 9 31 -6.0365 -0.2102
10 9 33 6.1889 0.7295
10 9 35 -4.8938 -0.2081
10 9 37 13.8849 1.2225
10 9 39 -12.1938 1.1956
10 9 41 6.8341 -0.7982
10 9 43 -8.9442 -1.1843
10 9 45 10.1207 -0.3647
10 9 47 -3.1507 -1.5771
10 9 49 22.3019 1.4776
10 9 51 20.3649 0.2646
10 10 4 -11.2808 -3.5752
10 10 8 -30.1165 2.9316
10 10 12 -31.9015 0.2197
10 10 16 -18.5934 -2.7969
10 10 20 2.1102 -4.5895
10 10 24 2.4853 0.0893
10 10 28 45.8510 1.1847
10 10 32 -34.8798 -0.2054
10 10 36 -5.5097 -4.0547
10 10 40 -15.2763 -1.8627
10 10 44 -31.1382 0.1408
10 10 48 30.0741 1.7027
10 10 52 28.3196 -1.9760
11 0 1 35.5121 1.1879
11 0 5 -7.4609 2.8902
11 0 7 114.1343 -1.7827
11 0 9 -12.9008 -0.0150
11 0 11 -6.5798 0.1854
11 0 15 -39.6426 0.5626
11 0 17 -77.3549 -1.9413
11 0 19 10.6502 -1.7642
11 0 21 0.0341 2.5921
11 0 23 -46.7976 -1.3896
11 0 25 2.9659 0.4155
11 0 27 1.4214 -3.8324
11 0 29 -12.9669 -4.5151
11 0 31 4.1093 -0.6101
11 0 33 23.6209 -1.6409
11 0 35 -1.4010 1.9977
11 0 37 33.8475 -1.5201
11 0 39 -5.5862 0.3691
11 0 41 -1.2599 -0.3177
11 0 43 24.3208 -4.9258
11 0 45 13.2652 -0.3891
11 0 47 11.4872 -1.6377
11 0 49 -32.0864 0.0013
11 0 51 21.3807 1.6606
11 0 53 -4.5880 -6.6715
11 1 2 -41.4114 -1.1106
11 1 4 -70.5325 1.4522
11 1 6 11.0744 -2.1976
11 1 8 -40.0036 0.8275
11 1 10 -12.5263 4.0013
11 1 12 32.2828 -2.2513
11 1 14 2.7476 -1.2904
11 1 16 9.2889 -0.1812
11 1 18 -9.9340 -3.2927
11 1 20 20.3111 1.7692
11 1 22 -22.6519 -0.2803
11 1 24 25.0301 -0.1200
11 1 26 -6.7000 4.5068
11 1 28 22.3154 -0.3131
11 1 30 0.7189 -3.2781
11 1 32 11.0512 -0.0246
11 1 34 -16.3985 -1.3986
11 1 36 -5.4628 -0.7069
11 1 38 10.3531 1.8338
11 1 40 4.0716 -0.3165
11 1 42 41.6523 2.2461
11 1 44 12.7535 1.1419
11 1 46 -12.9921 -3.0219
11 1 48 20.7033 0.1354
11 1 50 25.6246 0.9776
11 1 52 -15.9186 -0.3859
11 1 54 -12.8147 1.6352
11 2 1 3.2528 -0.0048
11 2 5 16.0342 -2.1195
11 2 7 45.8713 -0.1342
11 2 9 -30.6390 -1.2746
11 2 11 -13.7785 -1.9485
11 2 15 -23.1477 0.0106
11 2 17 -56.1968 -0.3139
11 2 19 -6.9831 5.2028
11 2 21 -15.5137 -0.7057
11 2 23 -38.1146 -1.2440
11 2 25 -18.2579 0.3677
11 2 27 10.0945 2.3098
11 2 29 -18.0100 2.9279
11 2 31 -1.6453 0.5169
11 2 33 6.0515 -1.0137
11 2 35 -0.1072 0.1960
11 2 37 -14.4170 3.5812
11 2 39 -16.1570 -1.4186
11 2 41 6.4353 0.6711
11 2 43 -8.1493 4.9708
11 2 45 -9.0882 -0.7641
11 2 47 -23.2662 0.4530
11 2 49 6.1302 -1.2844
11 2 51 -18.9126 -1.2104
11 2 53 12.1158 0.0622
11 3 2 -49.8401 1.6582
11 3 4 -78.2126 -1.4739
11 3 6 -38.6457 1.8186
11 3 8 21.2841 0.0210
11 3 10 15.7954 -3.7848
11 3 12 -29.4251 -0.5332
11 3 14 22.2336 2.8665
11 3 16 40.1779 -0.2374
11 3 18 25.8068 1.8418
11 3 20 25.0005 0.8037
11 3 22 -6.1843 -1.0025
11 3 24 5.6504 0.2553
11 3 26 -9.9579 -4.9842
11 3 28 14.8543 0.0408
11 3 30 -3.0823 3.6946
11 3 32 -19.6984 -0.1279
11 3 34 2.2725 1.7611
11 3 36 -7.3275 -0.0376
11 3 38 -11.9582 -0.8405
11 3 40 21.0540 0.0265
11 3 42 -5.9801 -3.0119
11 3 44 19.9278 0.5579
11 3 46 10.0140 1.8034
11 3 48 7.2936 0.1187
11 3 50 5.2899 -0.7115
11 3 52 -6.6948 0.3047
11 3 54 -21.9954 0.1247
11 4 1 38.2706 0.7019
11 4 3 -15.4907 2.9093
11 4 5 7.5579 -0.9942
11 4 7 -21.4711 -0.7343
11 4 9 49.6867 -0.8963
11 4 11 19.1884 1.1955
11 4 13 1.8296 7.1693
11 4 15 -6.9884 -0.7098
11 4 17 5.5907 -1.5224
11 4 19 -14.3691 1.4892
11 4 21 -10.6094 -1.6176
11 4 23 -11.7548 -2.5607
11 4 25 7.7253 -0.0954
11 4 27 -4.3391 2.5667
11 4 29 -10.8765 3.1667
11 4 31 5.4524 0.2793
11 4 33 -19.6679 -1.6609
11 4 35 -1.1695 -0.6790
11 4 37 -18.9864 0.6461
11 4 39 2.0348 -2.0551
11 4 41 -12.1322 -0.0833
11 4 43 -26.8639 3.7388
11 4 45 -35.6500 1.0783
11 4 47 3.8267 0.4905
11 4 49 -2.5463 -0.9816
11 4 51 5.6577 -0.6474
11 4 53 10.6898 0.3563
11 5 2 -42.0153 1.5410
11 5 4 23.9232 1.7871
11 5 6 -30.4615 3.4941
11 5 8 -34.5348 0.1683
11 5 10 -3.9397 -5.6753
11 5 12 59.6264 -0.6419
11 5 14 11.5969 0.8934
11 5 16 -26.8214 -1.2662
11 5 18 24.1678 2.3651
11 5 20 40.7135 -1.6070
11 5 22 -6.9133 1.5925
11 5 24 19.3261 -0.3131
11 5 26 13.6391 -4.7991
11 5 28 -10.9823 0.3832
11 5 30 2.3172 3.7084
11 5 32 10.0185 0.4579
11 5 34 14.0711 0.0502
11 5 36 -12.1036 -0.2262
11 5 38 6.1637 -1.0320
11 5 40 -18.5196 0.4609
11 5 42 0.5596 -2.3000
11 5 44 -5.7234 0.4717
11 5 46 -3.1316 4.9869
11 5 48 -10.8061 -0.0101
11 5 50 2.4034 -1.8556
11 5 52 31.4757 -0.1201
11 6 1 -53.5966 1.0155
11 6 3 8.3543 -0.3780
11 6 5 2.0820 -0.3149
11 6 7 -6.6083 0.5428
11 6 9 -5.9674 -2.0956
11 6 11 -36.6139 -0.2615
11 6 13 37.9312 1.0075
11 6 15 2.9469 -0.2738
11 6 17 28.1505 -0.1239
11 6 19 6.9835 0.6041
11 6 21 1.6939 -0.0846
11 6 23 -4.3898 -0.1676
11 6 25 -14.9597 -0.5077
11 6 27 -18.7344 0.4894
11 6 29 12.3223 -0.6310
11 6 31 -36.9345 -0.3139
11 6 33 -7.7249 0.4213
11 6 35 1.9122 -0.3162
11 6 37 22.4641 -0.0138
11 6 39 -0.9039 -0.0874
11 6 41 -8.2906 -0.5552
11 6 43 8.8799 0.7133
11 6 45 8.1433 -0.4004
11 6 47 12.4276 -0.7325
11 6 49 -8.7112 1.3137
11 6 51 13.9410 0.6115
11 6 53 -30.2480 -1.3508
11 7 2 64.6684 1.5510
11 7 4 -34.8733 1.5319
11 7 6 24.1414 0.4506
11 7 8 16.8772 -0.6525
11 7 10 -63.6506 -3.2789
11 7 12 -6.5593 0.6754
11 7 14 17.2144 0.6938
11 7 16 -14.0574 0.6398
11 7 18 20.3016 1.1401
11 7 20 -9.3989 -0.3638
11 7 22 18.3683 0.3611
11 7 24 5.3665 -0.5626
11 7 26 13.8266 -0.7820
11 7 28 -2.6819 -0.2481
11 7 30 -0.8107 0.2572
11 7 32 -4.0253 0.1140
11 7 34 -4.4577 -0.2262
11 7 36 11.7139 0.5666
11 7 38 -14.2191 -0.3458
11 7 40 6.3773 -0.9386
11 7 42 12.3948 -0.2416
11 7 44 -18.3215 -0.7671
11 7 46 -4.3968 1.3659
11 7 48 11.7600 0.4905
11 7 50 -15.4674 -0.7785
11 7 52 -6.8425 -0.6424
11 8 1 -69.3262 2.0401
11 8 3 70.5010 -0.0640
11 8 5 -25.2962 -0.1443
11 8 7 -73.9852 -0.7379
11 8 9 -55.5562 -1.5082
11 8 11 -10.8211 -0.9641
11 8 13 10.0351 -1.4247
11 8 15 26.9887 0.2925
11 8 17 31.6650 -0.8304
11 8 19 -4.7997 0.3133
11 8 21 10.5587 1.4171
11 8 23 23.0393 -1.3800
11 8 25 -27.7038 -0.0717
11 8 27 -3.5692 -1.1151
11 8 29 1.0476 -1.9029
11 8 31 24.2094 -0.3207
11 8 33 3.8794 -1.8026
11 8 35 3.4434 1.1697
11 8 37 -26.1664 -0.0005
11 8 39 7.4071 0.5243
11 8 41 36.1554 0.7420
11 8 43 -6.5330 -0.8230
11 8 45 8.3518 -0.2805
11 8 47 -26.6996 -1.0014
11 8 49 7.1169 -1.3765
11 8 51 -25.0550 -0.1251
11 9 2 25.4106 -0.6564
11 9 4 2.5603 -1.5405
11 9 6 38.7341 -4.0789
11 9 8 -9.9781 -2.1239
11 9 10 -9.9046 5.9333
11 9 12 -3.4081 1.3149
11 9 14 19.7018 -2.1039
11 9 16 51.5113 2.6941
11 9 18 -16.1587 -0.0034
11 9 20 -10.6222 0.1298
11 9 22 -2.7614 -1.4748
11 9 24 -43.8675 -1.9517
11 9 26 25.1436 3.6088
11 9 28 -18.0271 -0.7975
11 9 30 -1.4953 -3.7865
11 9 32 38.4996 2.0331
11 9 34 19.1020 0.4520
11 9 36 -11.7037 2.2525
11 9 38 -9.6789 0.3152
11 9 40 8.7423 -0.4177
11 9 42 -11.8060 2.2255
11 9 44 1.3777 -1.6390
11 9 46 -5.0402 -3.8864
11 9 48 -15.1239 0.7195
11 9 50 15.7770 0.8119
11 9 52 -13.9785 2.8249
11 10 3 -22.4726 3.1943
11 10 5 2.8665 -1.1881
11 10 7 12.3182 -3.0537
11 10 9 -4.2811 -0.0617
11 10 11 -5.4311 1.1991
11 10 13 -17.4473 2.7638
11 10 15 -3.4791 1.5909
11 10 17 -1.6676 -4.2830
11 10 19 2.7619 0.9053
11 10 21 6.0178 -0.6700
11 10 23 -38.4398 -4.8154
11 10 25 11.2512 2.2317
11 10 27 -16.4070 2.3470
11 10 29 -25.1501 4.5889
11 10 31 -16.2767 2.3600
11 10 33 9.9721 -4.2141
11 10 35 8.5652 0.5906
11 10 37 10.1395 0.6484
11 10 39 -0.3929 -3.9612
11 10 41 -10.6838 1.5632
11 10 43 -0.8469 0.6267
11 10 45 -9.4847 1.4626
11 10 47 -2.8065 0.7655
11 10 49 -11.9193 -2.4547
11 10 51 -17.8214 1.1195
11 11 6 -19.2073 -8.5717
11 11 10 31.6734 15.6455
11 11 14 -17.6547 -6.9573
11 11 18 -0.4995 -4.6566
11 11 22 18.6563 -0.7871
11 11 26 3.3301 15.6659
11 11 30 2.3568 -10.7449
11 11 34 5.3410 -2.0271
11 11 38 26.9559 1.9861
11 11 42 -9.9476 8.5974
11 11 46 -8.1978 -8.9032
11 11 50 -4.3517 3.9873
12 0 0 -12.4062 -2.4761
12 0 2 -76.6859 2.0101
12 0 4 -117.1180 -3.7281
12 0 6 -5.1971 -2.1428
12 0 8 9.7292 -0.4462
12 0 10 10.3839 -6.5891
12 0 12 43.2974 1.1638
12 0 14 30.8623 -1.4308
12 0 16 -1.2362 -2.7727
12 0 18 17.3398 2.4953
12 0 20 28.9937 -5.7521
12 0 22 2.9149 0.4199
12 0 24 5.7477 -2.4879
12 0 26 16.3935 -3.5971
12 0 28 -25.0564 2.0623
12 0 30 -18.0295 -3.7928
12 0 32 -9.6303 -0.8664
12 0 34 13.2532 -0.4973
12 0 36 -2.9437 -4.2826
12 0 38 7.6534 1.4095
12 0 40 -30.6474 -3.0399
12 0 42 -42.6179 -0.0900
12 0 44 8.8010 0.6623
12 0 46 2.1025 -3.6288
12 0 48 -1.1407 -0.1702
12 0 50 6.3802 -3.2815
12 0 52 -0.0086 -3.5429
12 1 1 -11.2892 -0.1626
12 1 3 98.2111 -2.6435
12 1 5 39.6477 0.4635
12 1 7 1.7055 -0.0036
12 1 9 14.2058 0.3631
12 1 11 -29.4096 -0.8125
12 1 13 -15.0258 1.0814
12 1 15 -18.7542 -0.4396
12 1 17 -23.7901 1.0988
12 1 19 4.5460 0.5809
12 1 21 -11.2581 -0.1978
12 1 23 17.7468 -0.5562
12 1 25 -3.3563 0.0257
12 1 27 -17.4041 -0.2252
12 1 29 3.1818 0.0821
12 1 31 5.0767 -0.4534
12 1 33 -1.7153 0.9406
12 1 35 5.3262 0.2855
12 1 37 16.5943 -0.1977
12 1 39 0.2573 -0.1722
12 1 41 -14.9319 -0.1813
12 1 43 2.0771 -0.1833
12 1 45 -2.1079 0.6251
12 1 47 3.4740 -0.1961
12 1 49 -2.6951 1.4166
12 1 51 38.1738 -0.2709
12 1 53 -23.2360 0.3175
12 2 0 74.0364 -0.3920
12 2 2 -24.4810 -0.7550
12 2 4 -3.8966 -0.5468
12 2 6 6.0191 1.8063
12 2 8 14.8948 0.2477
12 2 10 -35.1628 4.4413
12 2 12 37.7355 0.3396
12 2 14 9.9852 1.5570
12 2 16 12.2700 0.3230
12 2 18 -13.6667 -1.5335
12 2 20 19.8779 5.8629
12 2 22 34.9649 -0.0719
12 2 24 -4.1887 0.7312
12 2 26 28.4973 3.0718
12 2 28 -7.0682 -0.6753
12 2 30 5.4393 3.1199
12 2 32 7.5444 -0.1098
12 2 34 12.1326 0.4657
12 2 36 7.2080 4.4101
12 2 38 10.1602 -1.1661
12 2 40 10.7054 1.1827
12 2 42 17.5562 0.6554
12 2 44 -0.4968 0.4898
12 2 46 9.9615 2.7512
12 2 48 14.7720 -0.4089
12 2 50 -2.0635 1.3896
12 2 52 6.9358 -0.1667
12 3 1 -27.3937 -0.9965
12 3 3 53.5114 0.0515
12 3 5 56.3483 0.8747
12 3 7 -1.6441 0.9771
12 3 9 -7.8765 -1.4152
12 3 11 -25.7007 1.4440
12 3 13 -8.9436 0.1368
12 3 15 -42.4614 -0.7333
12 3 17 -19.1039 -0.0376
12 3 19 -9.0605 -1.4574
12 3 21 13.8449 1.3434
12 3 23 -11.7461 0.8473
12 3 25 2.8887 -0.0121
12 3 27 -0.1381 0.7338
12 3 29 2.3854 -0.6293
12 3 31 16.3785 0.3901
12 3 33 1.0581 -0.9167
12 3 35 9.6871 -0.9024
12 3 37 -8.4478 0.9861
12 3 39 -14.4297 -0.0080
12 3 41 -9.8469 0.8548
12 3 43 -5.8655 0.0506
12 3 45 -9.0326 -0.8567
12 3 47 -18.4714 1.0973
12 3 49 -14.4966 -1.5934
12 3 51 13.5586 -0.1506
12 3 53 -5.1808 -0.1050
12 4 0 31.2682 -3.0763
12 4 2 78.4034 -0.2181
12 4 4 -5.6548 1.2427
12 4 6 -21.1965 1.5454
12 4 8 -50.9996 -0.0540
12 4 10 52.2094 2.6262
12 4 12 -24.2001 -1.7329
12 4 14 13.4280 -0.4228
12 4 16 39.5092 0.0771
12 4 18 11.2989 -0.3857
12 4 20 -16.5837 2.9075
12 4 22 -4.8975 1.5306
12 4 24 28.9499 -0.8045
12 4 26 4.3364 -0.0932
12 4 28 16.7134 -1.7471
12 4 30 -5.1713 -0.6076
12 4 32 -5.4408 -1.1105
12 4 34 -7.9621 1.4098
12 4 36 9.3051 2.0098
12 4 38 -44.3131 0.2128
12 4 40 13.3058 0.8724
12 4 42 26.4669 -1.0171
12 4 44 -9.1638 -1.2798
12 4 46 9.8641 0.3052
12 4 48 17.9979 -0.8486
12 4 50 -7.9846 0.6904
12 4 52 -2.2454 -1.1056
12 5 1 36.1047 -0.5927
12 5 3 25.6706 0.2147
12 5 5 29.8456 -0.5374
12 5 7 56.1180 -0.3348
12 5 9 -10.1837 -0.0005
12 5 11 28.1561 1.3647
12 5 13 -8.3382 0.7808
12 5 15 -33.8190 0.9119
12 5 17 -3.8854 -2.7999
12 5 19 -21.6857 -1.1408
12 5 21 8.8161 0.0845
12 5 23 12.6505 0.7064
12 5 25 -4.2944 0.1200
12 5 27 5.5491 0.3169
12 5 29 -2.5223 0.0872
12 5 31 17.5674 0.3554
12 5 33 -1.2251 -0.7782
12 5 35 3.3813 -0.4514
12 5 37 -8.8268 0.6687
12 5 39 2.8377 0.9071
12 5 41 17.1929 -0.4186
12 5 43 -2.8425 -0.3412
12 5 45 -4.6700 -0.2045
12 5 47 8.7546 -0.0607
12 5 49 6.3727 -1.3563
12 5 51 -13.6490 0.2500
12 5 53 -5.8889 -1.7191
12 6 0 -35.7759 -2.1786
12 6 2 -14.5806 -0.3280
12 6 4 16.4830 -0.3174
12 6 6 13.6141 0.9252
12 6 8 0.7205 0.2128
12 6 10 -58.8903 -1.2894
12 6 12 -19.7527 -0.8161
12 6 14 15.4915 -0.5228
12 6 16 -11.6754 -0.8164
12 6 18 17.4191 -0.5876
12 6 20 39.8602 -1.0020
12 6 22 -1.2287 0.1494
12 6 24 -16.2491 -0.4137
12 6 26 19.7751 -1.1816
12 6 28 3.7533 0.0726
12 6 30 4.7408 -1.0347
12 6 32 12.8798 -0.2157
12 6 34 -21.5371 -0.1401
12 6 36 -11.6898 -1.3976
12 6 38 16.4972 -0.1677
12 6 40 20.8014 -0.6249
12 6 42 0.6000 -0.7001
12 6 44 26.2969 -0.1250
12 6 46 10.5977 -0.7511
12 6 48 -24.9002 0.0284
12 6 50 5.7869 -0.3944
12 6 52 3.1298 -1.3736
12 7 1 -11.4465 -0.6219
12 7 3 -63.6027 -0.2067
12 7 5 2.2045 -0.0257
12 7 7 32.5533 0.1407
12 7 9 5.9518 0.6961
12 7 11 -30.2168 -0.7010
12 7 13 -1.3794 -0.8298
12 7 15 30.1574 0.0998
12 7 17 -31.5546 -2.4814
12 7 19 13.8883 -0.2059
12 7 21 16.8102 0.7164
12 7 23 -13.2575 0.9986
12 7 25 -3.5195 1.1729
12 7 27 -5.7477 -0.6064
12 7 29 5.3999 0.4223
12 7 31 -0.1215 -0.2629
12 7 33 15.5916 -0.7634
12 7 35 -1.4037 -1.0348
12 7 37 -7.4573 -0.0911
12 7 39 -1.8306 0.6776
12 7 41 -9.8100 -0.2147
12 7 43 10.4311 0.0433
12 7 45 14.7695 0.2114
12 7 47 3.5968 -0.6928
12 7 49 3.6835 -0.0330
12 7 51 -13.5779 -0.4015
12 8 0 8.7975 -1.4219
12 8 2 -18.6723 0.5829
12 8 4 6.5289 -0.2529
12 8 6 -23.7507 -0.2763
12 8 8 -3.0084 0.0755
12 8 10 28.5787 -1.5934
12 8 12 5.8607 0.2804
12 8 14 6.8920 1.0909
12 8 16 -39.1504 1.1956
12 8 18 11.9974 1.2360
12 8 20 -8.6758 -0.8065
12 8 22 -12.4403 -1.0145
12 8 24 -13.6332 0.5057
12 8 26 -30.5677 1.1354
12 8 28 21.1358 0.1792
12 8 30 -3.3144 1.3102
12 8 32 15.8513 0.2306
12 8 34 34.8883 -0.6892
12 8 36 14.5072 -0.2260
12 8 38 -1.4396 0.0617
12 8 40 -34.7088 0.8783
12 8 42 0.0192 1.6228
12 8 44 6.8132 0.0536
12 8 46 -16.8092 -0.3277
12 8 48 -2.3235 -0.3061
12 8 50 2.2763 -0.4599
12 9 1 31.1151 0.7340
12 9 3 -31.6695 1.9385
12 9 5 -50.7177 0.5529
12 9 7 -8.7526 1.3460
12 9 9 12.0063 0.7435
12 9 11 -13.3859 0.5030
12 9 13 -0.6728 -1.9470
12 9 15 -20.9927 -0.5329
12 9 17 -0.6639 0.1735
12 9 19 -24.1680 0.7424
12 9 21 -14.3598 0.2210
12 9 23 -1.6504 0.6251
12 9 25 -14.8798 -0.5038
12 9 27 -0.6425 1.8389
12 9 29 -6.2197 -2.2721
12 9 31 -18.8291 -0.2019
12 9 33 -2.7518 -0.1195
12 9 35 -45.8840 0.0384
12 9 37 0.7756 -0.1734
12 9 39 2.9880 -0.0495
12 9 41 4.6897 -0.2176
12 9 43 1.8538 1.9177
12 9 45 -21.3375 -0.1547
12 9 47 -10.8674 -0.2270
12 9 49 0.7929 -1.0202
12 9 51 -0.5186 -0.8013
12 10 2 -2.8133 -0.4630
12 10 4 -13.4479 1.8466
12 10 6 25.2970 -2.6083
12 10 8 42.6748 -0.0717
12 10 10 0.0552 -3.9885
12 10 12 0.3800 -0.0672
12 10 14 -5.5999 -0.7031
12 10 16 -5.0495 -0.2844
12 10 18 -19.9831 0.7139
12 10 20 7.6273 1.4033
12 10 22 0.2490 -1.7390
12 10 24 8.7116 0.4628
12 10 26 21.4429 -2.3870
12 10 28 35.9355 0.1000
12 10 30 10.3203 -1.3932
12 10 32 -13.7060 0.4359
12 10 34 -17.1953 -1.2179
12 10 36 -21.9683 1.5287
12 10 38 -4.9143 0.1504
12 10 40 -6.6928 -0.2156
12 10 42 22.4244 -0.6007
12 10 44 -8.5820 0.2767
12 10 46 2.1138 -1.8075
12 10 48 -6.8705 0.1247
12 10 50 16.9044 -1.6177
12 11 3 -4.5025 3.2410
12 11 5 -3.8154 0.2351
12 11 7 8.1759 -4.1747
12 11 9 -19.0732 2.6910
12 11 11 -5.8976 -2.2684
12 11 13 11.8500 -3.1537
12 11 15 -1.3617 0.1529
12 11 17 19.8902 5.6824
12 11 19 6.5882 3.2046
12 11 21 -8.9732 -0.4838
12 11 23 22.1170 -5.3990
12 11 25 19.9518 -1.7135
12 11 27 9.0274 -0.2634
12 11 29 -1.3343 -0.6414
12 11 31 -13.3405 0.9726
12 11 33 4.9008 6.8944
12 11 35 20.5355 1.7337
12 11 37 -18.0029 -2.3307
12 11 39 -10.1966 -3.6881
12 11 41 25.9465 -1.8601
12 11 43 -1.2997 0.7722
12 11 45 -1.3009 0.5565
12 11 47 14.9910 -0.6470
12 11 49 9.3917 4.4674
12 12 4 20.9329 -0.1918
12 12 8 22.7216 1.4776
12 12 12 25.5938 0.2222
12 12 16 27.7681 -6.0784
12 12 20 3.2474 -0.4092
12 12 24 22.8232 -1.6402
12 12 28 -12.3761 0.1628
12 12 32 -25.3206 -2.1094
12 12 36 -15.6737 -0.3871
12 12 40 55.6343 -4.1903
12 12 44 -10.3286 0.3119
12 12 48 22.1834 0.6467
13 0 1 30.1335 -0.6478
13 0 5 30.3306 0.2559
13 0 7 31.8270 -5.4725
13 0 9 15.9364 -1.4028
13 0 11 -7.8992 -0.3077
13 0 13 -85.5420 -2.0195
13 0 15 -6.7854 1.5499
13 0 17 18.9612 -5.7964
13 0 19 15.8104 -1.5440
13 0 21 8.7735 -0.8868
13 0 23 -27.8219 -5.9613
13 0 25 -22.3553 2.3778
13 0 27 18.2982 -2.1956
13 0 29 4.3453 -0.1443
13 0 31 -3.4764 1.5436
13 0 33 -3.1515 -5.5198
13 0 35 -26.2539 0.5131
13 0 37 3.8002 -1.7416
13 0 39 20.9017 -3.2705
13 0 41 4.6958 1.6499
13 0 43 -18.6879 -2.7716
13 0 45 -21.6285 1.0076
13 0 47 -12.0188 -0.5698
13 0 49 8.7844 -3.9066
13 0 51 -7.9882 1.3202
13 0 53 13.5036 -0.5933
13 1 2 -7.7942 1.8136
13 1 4 -4.0025 -1.7274
13 1 6 -18.6162 3.0920
13 1 8 -10.5274 0.7361
13 1 10 18.2847 -5.7689
13 1 12 17.2355 1.3651
13 1 14 7.3896 2.0939
13 1 16 21.3440 -0.4788
13 1 18 -29.7318 3.0242
13 1 20 -31.9567 -0.6141
13 1 22 8.9696 0.0142
13 1 24 17.4121 0.8660
13 1 26 -31.6920 -4.5525
13 1 28 10.4323 0.3029
13 1 30 -2.3485 3.5366
13 1 32 18.4338 -0.6028
13 1 34 0.4635 1.1301
13 1 36 6.8813 -0.2884
13 1 38 13.9135 -1.7562
13 1 40 17.7717 1.2151
13 1 42 -17.2236 -2.2455
13 1 44 5.7287 -0.3750
13 1 46 -19.8317 4.2458
13 1 48 44.9698 -0.5153
13 1 50 27.8217 -0.4192
13 1 52 -16.9903 -0.3968
13 2 1 25.3390 1.4327
13 2 3 -21.9705 -0.6758
13 2 5 23.7552 0.5261
13 2 7 -11.1234 2.0943
13 2 9 23.4498 1.0736
13 2 11 -9.9174 1.0374
13 2 13 -19.0100 2.1329
13 2 15 -21.7767 -1.1258
13 2 17 1.2709 3.3994
13 2 19 -4.4832 0.8775
13 2 21 -17.9177 0.5067
13 2 23 -19.5482 4.5677
13 2 25 -4.6162 -0.9297
13 2 27 3.3036 1.1995
13 2 29 -22.3512 0.0644
13 2 31 4.7584 -0.5258
13 2 33 11.2690 3.6769
13 2 35 17.3527 -0.1700
13 2 37 -6.9761 1.5739
13 2 39 -28.8313 2.6867
13 2 41 9.3000 -0.4503
13 2 43 8.5419 1.8931
13 2 45 -13.7095 0.0096
13 2 47 -2.4517 1.1680
13 2 49 -6.3895 1.1188
13 2 51 2.4905 0.8029
13 3 2 -15.6621 0.4638
13 3 4 -37.0519 0.9744
13 3 6 -36.4843 -0.8295
13 3 8 23.5981 0.4309
13 3 10 14.5918 1.2778
13 3 12 0.2325 -0.2582
13 3 14 11.1777 0.3790
13 3 16 14.6856 0.1361
13 3 18 13.5364 0.7643
13 3 20 -24.1511 0.0674
13 3 22 3.0421 -1.8321
13 3 24 -8.0178 -0.0624
13 3 26 -8.6666 0.8441
13 3 28 13.0801 0.1252
13 3 30 6.3120 -0.7259
13 3 32 -0.7335 0.0156
13 3 34 -25.0768 1.1900
13 3 36 0.3773 -0.3632
13 3 38 -15.0244 -0.2697
13 3 40 9.4033 0.4025
13 3 42 12.3278 -0.0548
13 3 44 -0.0323 0.2554
13 3 46 -5.1237 -0.5054
13 3 48 -14.4907 0.1570
13 3 50 3.5848 1.0831
13 3 52 -32.3587 -0.1150
13 4 1 4.8164 1.3136
13 4 3 -41.1513 -2.9921
13 4 5 38.5965 -1.3639
13 4 7 16.1874 3.4206
13 4 9 -3.4580 0.6057
13 4 11 8.9128 -0.5480
13 4 13 -2.4231 1.9026
13 4 15 -6.4948 -0.6167
13 4 17 -25.7207 1.2370
13 4 19 -12.9602 -0.4856
13 4 21 14.3068 -1.5967
13 4 23 -0.7156 1.3050
13 4 25 21.2742 0.4290
13 4 27 2.4896 0.3117
13 4 29 -15.7917 0.5202
13 4 31 5.8740 0.6230
13 4 33 6.7169 1.0122
13 4 35 8.2121 -1.2206
13 4 37 -25.1512 0.4858
13 4 39 7.5454 0.3857
13 4 41 1.3481 -0.2888
13 4 43 -17.7522 1.7137
13 4 45 -5.8083 -0.9005
13 4 47 20.8717 0.3603
13 4 49 13.3386 1.0883
13 4 51 7.7347 -0.5445
13 5 2 -26.2618 0.4318
13 5 4 -3.7205 -1.4996
13 5 6 -34.0259 -2.7880
13 5 8 -32.6616 0.1061
13 5 10 31.4345 3.0902
13 5 12 4.3362 0.0879
13 5 14 -3.8988 -1.6440
13 5 16 33.6922 -0.2044
13 5 18 -0.1801 -0.2334
13 5 20 -15.1926 0.0338
13 5 22 -2.9550 -0.3839
13 5 24 21.2084 -0.4094
13 5 26 -9.3376 3.1277
13 5 28 -16.1624 -0.1092
13 5 30 6.2466 -2.0521
13 5 32 2.9800 -0.1633
13 5 34 -28.6313 -0.0683
13 5 36 19.9676 0.7074
13 5 38 6.6185 -0.0871
13 5 40 -3.1771 -0.2521
13 5 42 5.8353 1.6203
13 5 44 1.1513 -0.3022
13 5 46 16.8654 -2.5953
13 5 48 -0.5470 0.1239
13 5 50 11.4533 0.7771
13 5 52 19.0597 1.4846
13 6 1 8.4120 1.3127
13 6 3 24.6840 0.6071
13 6 5 -40.3797 -0.8320
13 6 7 39.0154 0.7446
13 6 9 1.8371 0.9404
13 6 11 4.0436 -0.4887
13 6 13 15.6659 -0.0993
13 6 15 -11.2710 0.5007
13 6 17 -9.5235 -1.3330
13 6 19 -8.2048 -0.0723
13 6 21 15.8570 -1.2375
13 6 23 19.1169 -1.3887
13 6 25 -8.6704 0.7328
13 6 27 -22.8394 -0.7470
13 6 29 28.3340 0.1306
13 6 31 5.3275 0.6805
13 6 33 -16.4757 -2.0706
13 6 35 -8.0884 -0.5504
13 6 37 0.8092 -0.1790
13 6 39 -0.0857 -0.9231
13 6 41 0.9517 0.6011
13 6 43 -3.2472 -0.8690
13 6 45 12.8838 0.1313
13 6 47 2.7227 0.3142
13 6 49 -7.0598 -1.6355
13 6 51 5.5122 -0.5504
13 7 2 -13.0774 -0.7515
13 7 4 -64.1367 -0.1484
13 7 6 4.1871 -2.7988
13 7 8 32.9837 -0.0068
13 7 10 -60.3467 3.9079
13 7 12 21.9523 0.2053
13 7 14 28.9760 -2.2923
13 7 16 -19.8417 0.6876
13 7 18 14.3057 -0.4977
13 7 20 8.2264 -0.9148
13 7 22 -6.9773 -0.1796
13 7 24 -15.8942 -0.7471
13 7 26 0.9323 1.7373
13 7 28 -22.0389 0.2799
13 7 30 1.1363 -1.6002
13 7 32 -10.3976 0.4905
13 7 34 45.4118 -0.2386
13 7 36 -29.1061 -0.0761
13 7 38 4.4575 0.1616
13 7 40 32.2926 -0.4908
13 7 42 -13.2758 1.5130
13 7 44 8.5114 -0.2736
13 7 46 1.7546 -2.0877
13 7 48 -3.1653 -0.1157
13 7 50 -8.9096 -0.5906
13 8 1 -34.5453 -0.1066
13 8 3 -0.8326 3.3412
13 8 5 -24.1065 -0.4942
13 8 7 7.6901 -0.3073
13 8 9 -41.4396 0.4779
13 8 11 -23.2699 0.0741
13 8 13 47.5489 0.6874
13 8 15 12.9928 1.0614
13 8 17 1.6787 -0.3834
13 8 19 2.8260 -0.2288
13 8 21 -21.1472 -0.2390
13 8 23 -12.6166 0.6505
13 8 25 -25.7401 1.2034
13 8 27 -6.8253 0.8606
13 8 29 -0.0049 0.8618
13 8 31 -1.2159 0.7071
13 8 33 -8.8458 0.3881
13 8 35 9.0710 -0.0686
13 8 37 34.0902 -0.2482
13 8 39 2.1853 0.5640
13 8 41 -10.9744 0.2030
13 8 43 11.4500 -0.2705
13 8 45 -9.5109 0.0274
13 8 47 -30.3319 0.2924
13 8 49 -7.1963 0.5768
13 8 51 -1.5459 0.5939
13 9 2 49.6527 -0.1494
13 9 4 27.4347 1.7204
13 9 6 51.0449 -2.1650
13 9 8 -41.3584 0.0031
13 9 10 -33.6485 1.8320
13 9 12 -3.0272 -0.1203
13 9 14 41.6005 0.9365
13 9 16 36.4870 -0.3617
13 9 18 16.7417 -1.0087
13 9 20 1.8067 -0.0783
13 9 22 3.9814 -0.1091
13 9 24 -21.1189 1.1451
13 9 26 -3.2653 0.8434
13 9 28 0.6880 0.5062
13 9 30 6.9694 -0.7843
13 9 32 29.8321 -1.3224
13 9 34 -23.1004 -0.2754
13 9 36 12.2113 -0.6375
13 9 38 27.6266 0.7489
13 9 40 -21.7312 0.1052
13 9 42 13.4211 0.0026
13 9 44 -33.0825 0.5509
13 9 46 7.1100 -2.1339
13 9 48 24.1702 -0.3717
13 9 50 -26.5860 -0.6983
13 10 1 -1.3811 1.9451
13 10 3 9.3436 -0.5412
13 10 5 35.0864 0.2099
13 10 7 -11.5116 -0.3383
13 10 9 12.1388 -0.8155
13 10 11 1.9678 -0.7510
13 10 13 -13.7003 -3.4094
13 10 15 7.5970 0.7749
13 10 17 -9.2743 1.3455
13 10 19 -10.7790 -0.4007
13 10 21 25.4715 1.2990
13 10 23 -4.7493 1.8221
13 10 25 -11.6081 -0.3991
13 10 27 5.0525 -1.5645
13 10 29 7.1732 -2.7380
13 10 31 -28.7567 -0.6330
13 10 33 38.7731 1.3400
13 10 35 -13.4261 0.3739
13 10 37 4.1177 -0.5502
13 10 39 -0.9511 1.9369
13 10 41 0.8769 0.0495
13 10 43 -2.6125 -1.8989
13 10 45 12.8247 -0.7664
13 10 47 2.2145 -0.4218
13 10 49 -23.6547 0.7735
13 11 2 5.8321 0.8710
13 11 4 14.6182 -1.1563
13 11 6 6.2864 3.7067
13 11 8 3.5231 -1.7985
13 11 10 8.0865 -4.4723
13 11 12 -12.5737 1.7864
13 11 14 -1.4781 2.5078
13 11 16 0.8857 2.9617
13 11 18 -2.5897 0.5670
13 11 20 23.5762 -0.8723
13 11 22 29.7620 -0.0057
13 11 24 14.1502 -1.0228
13 11 26 6.0446 -4.8886
13 11 28 47.2749 -0.0980
13 11 30 13.8588 3.3958
13 11 32 -3.0120 1.1385
13 11 34 15.9737 0.0484
13 11 36 0.1908 1.9660
13 11 38 -15.2794 0.3541
13 11 40 3.1186 -0.6398
13 11 42 -4.7282 -2.0691
13 11 44 0.3745 -1.1256
13 11 46 -21.2754 1.3607
13 11 48 -10.8505 0.3427
13 12 1 1.5223 1.4941
13 12 3 -5.3278 -8.7946
13 12 5 -23.8291 2.1437
13 12 7 -20.4861 5.2118
13 12 9 6.6029 1.2585
13 12 11 -27.7602 1.9245
13 12 13 -18.0409 -6.8376
13 12 15 16.7469 -1.0111
13 12 17 -29.9132 4.4674
13 12 19 7.3316 -6.2633
13 12 21 -24.8126 -0.3033
13 12 23 3.2124 4.1398
13 12 25 13.2612 -1.0517
13 12 27 21.2542 -1.5202
13 12 29 -11.0641 -2.8964
13 12 31 -0.3887 -0.5519
13 12 33 -18.0463 5.7926
13 12 35 -10.2696 -1.4062
13 12 37 5.1770 -3.5349
13 12 39 -3.7328 2.3455
13 12 41 -13.3428 -2.0715
13 12 43 0.4849 -4.2082
13 12 45 19.3828 0.1058
13 12 47 4.7268 0.4863
13 13 2 -53.4016 1.7900
13 13 6 -17.0884 9.7639
13 13 10 1.8664 -10.9673
13 13 14 -53.1364 1.6609
13 13 18 -1.4138 0.5643
13 13 22 -29.1111 4.8347
13 13 26 1.5563 -6.2686
13 13 30 -17.0987 6.7852
13 13 34 -0.6790 -2.7053
13 13 38 -13.7679 -0.7738
13 13 42 20.3164 -2.4436
13 13 46 -7.3969 8.9808
14 0 2 13.7335 -2.1740
14 0 4 -7.0181 -2.4358
14 0 6 -18.7945 -2.5144
14 0 8 -10.8764 3.4260
14 0 10 40.0841 -4.6931
14 0 12 76.0698 0.0325
14 0 14 -12.5877 -1.6733
14 0 16 9.3219 -5.3478
14 0 18 0.6412 1.4875
14 0 20 -27.8074 -2.0067
14 0 22 -9.8397 0.3179
14 0 24 4.5186 -1.2010
14 0 26 8.5453 -2.9404
14 0 28 7.3604 0.0680
14 0 30 3.0892 -2.8721
14 0 32 -3.0714 -0.6414
14 0 34 57.2368 -0.3200
14 0 36 15.5045 -0.9693
14 0 38 -9.9137 1.1584
14 0 40 -43.9598 -3.4804
14 0 42 -4.3523 -0.6694
14 0 44 21.6764 -0.8555
14 0 46 12.1360 -2.2118
14 0 48 -27.7918 1.9569
14 0 50 -15.4904 -2.1633
14 0 52 10.4273 3.4604
14 1 1 -0.3228 -0.5391
14 1 3 4.2396 0.5854
14 1 5 16.3553 -0.2436
14 1 7 -1.1225 -0.1120
14 1 9 -1.2238 -1.2261
14 1 11 19.8930 0.5694
14 1 13 -22.0549 2.2642
14 1 15 50.0932 0.0978
14 1 17 -35.6903 -1.1764
14 1 19 9.2575 -2.3592
14 1 21 -1.4897 0.3274
14 1 23 -0.1978 1.3872
14 1 25 -7.3581 -0.4316
14 1 27 21.3357 0.1574
14 1 29 -3.5503 0.4423
14 1 31 -38.2039 0.5541
14 1 33 -7.7640 -1.1933
14 1 35 -5.3913 -0.4327
14 1 37 -36.4430 1.3343
14 1 39 -18.1360 1.2552
14 1 41 27.0652 -0.0344
14 1 43 5.4358 -0.9557
14 1 45 -34.7869 0.0268
14 1 47 0.1485 0.3352
14 1 49 -10.7696 0.3140
14 1 51 -4.2956 0.1950
14 2 2 -21.7430 -0.0986
14 2 4 -13.7037 -0.2658
14 2 6 -32.4604 1.4559
14 2 8 0.3744 -0.8776
14 2 10 38.8354 0.2428
14 2 12 -3.0289 -0.6088
14 2 14 5.4608 0.8494
14 2 16 21.6359 3.0282
14 2 18 -3.6531 -0.0466
14 2 20 -10.8113 -0.9880
14 2 22 18.8075 0.7339
14 2 24 22.0077 -0.0318
14 2 26 14.5307 1.0823
14 2 28 0.0746 0.1893
14 2 30 5.2544 0.9640
14 2 32 3.7221 0.5383
14 2 34 -24.8208 0.5900
14 2 36 -5.4212 -0.6985
14 2 38 2.3457 -0.2681
14 2 40 16.2354 2.2951
14 2 42 -4.4359 0.2050
14 2 44 2.4442 0.3350
14 2 46 13.2951 0.9634
14 2 48 1.9826 -0.4811
14 2 50 5.4323 -0.0770
14 2 52 -9.7789 2.3541
14 3 1 35.6055 0.1953
14 3 3 37.9213 1.0851
14 3 5 27.8499 0.3692
14 3 7 -8.6045 0.2664
14 3 9 -31.4686 -0.0686
14 3 11 -25.3311 -1.0117
14 3 13 -21.4813 -1.0694
14 3 15 -22.7043 -0.2377
14 3 17 8.2994 0.0739
14 3 19 -1.5066 0.3242
14 3 21 11.1605 0.5281
14 3 23 19.8807 -0.3049
14 3 25 0.2893 0.3941
14 3 27 -0.9945 0.6197
14 3 29 13.6348 -0.8195
14 3 31 11.7122 -0.2445
14 3 33 -1.0770 0.6263
14 3 35 -23.6545 -0.4322
14 3 37 -15.8926 0.4644
14 3 39 -9.3213 -0.1497
14 3 41 -13.6717 -0.0630
14 3 43 7.3101 0.9516
14 3 45 -7.3363 0.3926
14 3 47 -5.3334 -0.0453
14 3 49 20.9534 0.8138
14 3 51 13.4823 0.0705
14 4 0 -14.7575 -5.0635
14 4 2 -25.1911 -0.6083
14 4 4 -35.3837 -0.7119
14 4 6 7.1382 1.8700
14 4 8 -25.0275 -1.1844
14 4 10 -4.6450 0.5994
14 4 12 -20.4355 0.5119
14 4 14 -14.2494 1.0230
14 4 16 17.8374 2.7484
14 4 18 -15.7285 -0.6344
14 4 20 -10.6683 -0.1039
14 4 22 6.4827 -0.8289
14 4 24 -12.2197 -0.1264
14 4 26 -16.4850 0.7191
14 4 28 -19.7777 -0.0633
14 4 30 -8.6658 1.5077
14 4 32 2.7856 0.2335
14 4 34 -9.1868 -0.3638
14 4 36 7.4165 0.1596
14 4 38 -11.9297 -0.8385
14 4 40 11.6135 1.5339
14 4 42 24.5241 0.8850
14 4 44 -2.6761 1.1385
14 4 46 -25.0725 0.9998
14 4 48 13.5619 -0.1476
14 4 50 -22.8205 0.5840
14 5 1 -16.1394 -0.5069
14 5 3 22.4624 0.1875
14 5 5 20.7240 1.2731
14 5 7 5.0367 0.9165
14 5 9 31.3707 -0.7966
14 5 11 21.0762 -0.7653
14 5 13 -9.4557 -1.6524
14 5 15 -10.1092 -0.7337
14 5 17 2.5716 0.6305
14 5 19 -1.9416 1.1543
14 5 21 14.0008 -0.8128
14 5 23 25.3817 -0.3250
14 5 25 -1.2308 0.2633
14 5 27 -24.4637 -0.3081
14 5 29 -19.6638 0.2602
14 5 31 -1.8037 -0.0641
14 5 33 4.0133 0.1479
14 5 35 8.9903 0.9671
14 5 37 -1.9297 -0.5948
14 5 39 -7.8538 -0.7661
14 5 41 17.5903 0.2403
14 5 43 13.3857 0.4238
14 5 45 -4.6751 -0.0118
14 5 47 -0.6184 0.5246
14 5 49 10.0602 0.1294
14 5 51 3.9376 0.3034
14 6 0 -10.1130 -2.0383
14 6 2 -4.7871 -0.3928
14 6 4 -2.7181 1.2033
14 6 6 -9.2442 0.0530
14 6 8 -16.7415 -0.7102
14 6 10 -40.6091 0.1939
14 6 12 -5.9665 -0.0535
14 6 14 17.4928 -1.5727
14 6 16 4.5834 0.5051
14 6 18 38.4844 0.2393
14 6 20 16.2806 -0.5565
14 6 22 -30.8414 0.2443
14 6 24 -9.1598 0.3514
14 6 26 16.9361 -1.4305
14 6 28 4.0277 0.2656
14 6 30 -17.2193 -1.1616
14 6 32 4.3405 -0.2852
14 6 34 -3.2140 0.0235
14 6 36 3.6239 0.3787
14 6 38 8.4262 0.0639
14 6 40 -7.9425 0.2407
14 6 42 11.4165 -0.5426
14 6 44 -9.7723 -0.3859
14 6 46 13.4655 0.2035
14 6 48 -8.8662 -0.2881
14 6 50 -2.0733 -0.2740
14 7 1 14.3266 -0.4153
14 7 3 -2.9756 -0.7829
14 7 5 22.0368 0.3956
14 7 7 38.2192 -1.4167
14 7 9 19.7225 0.1125
14 7 11 -54.6796 -0.1773
14 7 13 -17.1403 -0.8812
14 7 15 -2.0309 -0.4157
14 7 17 -7.8939 1.2016
14 7 19 -2.8995 1.6024
14 7 21 9.6055 -0.6789
14 7 23 17.0357 -0.9220
14 7 25 -27.6083 -0.2001
14 7 27 -11.0223 -1.0723
14 7 29 10.2709 0.2553
14 7 31 19.3075 -0.7177
14 7 33 -16.8928 1.3340
14 7 35 13.3242 1.1442
14 7 37 30.9394 -1.0902
14 7 39 -9.2770 -1.1766
14 7 41 -24.2137 -0.2096
14 7 43 -5.3684 -0.1958
14 7 45 -17.7494 0.2695
14 7 47 1.7385 -0.1754
14 7 49 -6.8596 -1.5868
14 8 0 33.1004 -0.1840
14 8 2 -13.4016 0.0628
14 8 4 16.2890 1.2014
14 8 6 -29.5759 1.4594
14 8 8 1.2897 0.0631
14 8 10 -31.2675 1.4712
14 8 12 2.2520 -0.3280
14 8 14 11.3947 -0.3312
14 8 16 -23.0319 -1.1147
14 8 18 -1.8930 0.3938
14 8 20 4.4014 -0.0026
14 8 22 -27.0892 1.5330
14 8 24 -14.2662 -0.1304
14 8 26 -19.4236 -0.0860
14 8 28 -8.1424 -0.2028
14 8 30 10.3564 0.6108
14 8 32 -19.1480 -0.1584
14 8 34 5.2275 1.1839
14 8 36 -4.9767 -0.2981
14 8 38 15.8423 0.5969
14 8 40 0.0689 -1.0400
14 8 42 -11.6552 -0.0531
14 8 44 -11.9584 -0.2285
14 8 46 -8.4302 1.2288
14 8 48 -12.5327 0.0448
14 8 50 20.6506 1.1362
14 9 1 21.5861 0.3874
14 9 3 -29.3071 1.8791
14 9 5 -9.1525 -0.2018
14 9 7 10.2167 -0.3395
14 9 9 19.0967 -0.6415
14 9 11 49.5385 0.3006
14 9 13 11.0935 -1.9870
14 9 15 2.8216 0.1073
14 9 17 2.5725 0.8007
14 9 19 -56.5784 1.3833
14 9 21 -4.2184 0.6506
14 9 23 17.0936 0.0212
14 9 25 26.4562 -1.2892
14 9 27 3.5524 0.6311
14 9 29 10.3531 -2.1523
14 9 31 -12.8539 1.3184
14 9 33 -14.1905 0.3595
14 9 35 -38.5220 0.4428
14 9 37 -19.2095 -0.9977
14 9 39 9.2254 -0.9702
14 9 41 -5.8050 -0.2918
14 9 43 -0.9251 0.5121
14 9 45 14.0257 -1.0513
14 9 47 -19.2277 0.8564
14 9 49 7.7692 -2.2487
14 10 0 7.3311 -0.4007
14 10 2 22.6140 0.1233
14 10 4 14.4762 0.0230
14 10 6 1.8374 -1.0009
14 10 8 15.0770 0.9888
14 10 10 8.2638 -0.8158
14 10 12 -12.8622 -0.2888
14 10 14 13.7990 -0.1212
14 10 16 -22.4985 0.2517
14 10 18 -14.1149 0.2206
14 10 20 23.5836 1.0662
14 10 22 39.9865 0.3167
14 10 24 1.2045 1.3821
14 10 26 -1.9285 0.5409
14 10 28 -3.9963 0.0192
14 10 30 -0.4009 -0.1826
14 10 32 3.9147 1.1193
14 10 34 0.2749 -0.0952
14 10 36 -27.5505 1.0058
14 10 38 -20.9556 0.1957
14 10 40 25.5498 0.0485
14 10 42 10.9592 0.1759
14 10 44 19.8682 -0.2759
14 10 46 2.3043 -0.4531
14 10 48 23.4722 -0.1912
14 11 1 -11.0021 -0.6758
14 11 3 2.1267 -0.9614
14 11 5 -19.7483 -0.5062
14 11 7 20.7228 1.7109
14 11 9 -11.5767 -0.2566
14 11 11 -21.1204 0.4991
14 11 13 5.3646 2.0097
14 11 15 6.0759 -0.7617
14 11 17 -0.4819 -0.7516
14 11 19 -13.2410 -1.6602
14 11 21 -32.4362 1.5268
14 11 23 8.9933 2.6322
14 11 25 -0.0062 -0.0352
14 11 27 -2.4771 -0.7356
14 11 29 9.4659 0.1576
14 11 31 4.1523 -0.4202
14 11 33 12.7308 -2.0024
14 11 35 12.2454 -0.9041
14 11 37 -48.8042 1.5759
14 11 39 -12.4581 0.8809
14 11 41 29.7505 0.9344
14 11 43 0.7492 -0.2714
14 11 45 0.3961 -0.1589
14 11 47 28.1999 0.1009
14 12 0 15.6811 -0.9554
14 12 2 35.1720 -0.5097
14 12 4 -16.8186 -0.6779
14 12 6 4.9343 -1.6958
14 12 8 16.9919 -0.2758
14 12 10 2.4381 -2.1542
14 12 12 2.5985 -0.9759
14 12 14 7.8890 -0.0707
14 12 16 -1.1637 1.6873
14 12 18 -32.2575 0.3554
14 12 20 1.3389 -2.2000
14 12 22 5.4298 -0.9043
14 12 24 -13.2832 -0.2801
14 12 26 -2.4263 -1.2678
14 12 28 12.2610 -0.6772
14 12 30 -19.4938 -1.2465
14 12 32 8.0541 0.2699
14 12 34 3.3879 -0.5247
14 12 36 -2.6556 -2.1639
14 12 38 27.0351 -0.0470
14 12 40 20.0369 0.4597
14 12 42 -19.2500 -0.7790
14 12 44 -8.6135 -0.0763
14 12 46 11.8980 -2.2231
14 13 1 -7.8985 -2.7172
14 13 3 9.5669 -7.5523
14 13 5 -0.2361 -2.4871
14 13 7 -18.7277 3.2986
14 13 9 -35.6818 -0.0719
14 13 11 36.7368 0.1863
14 13 13 4.4036 6.9847
14 13 15 -33.2900 0.0426
14 13 17 -3.6549 -5.1501
14 13 19 24.4470 -3.7344
14 13 21 -3.8779 -1.0082
14 13 23 -9.7663 5.4075
14 13 25 -4.4325 0.6108
14 13 27 -3.5034 -2.8569
14 13 29 -5.0058 5.3848
14 13 31 18.7572 -0.8307
14 13 33 8.0686 -5.3682
14 13 35 20.0154 -0.3012
14 13 37 54.5487 1.5128
14 13 39 0.1825 4.7388
14 13 41 10.2365 0.5744
14 13 43 -4.1540 -3.8869
14 13 45 9.4047 0.9776
14 14 4 19.6893 -5.6165
14 14 8 -2.7551 -0.8789
14 14 12 -26.8434 -0.2828
14 14 16 34.7771 5.7450
14 14 20 12.6039 -9.1992
14 14 24 14.8685 1.3561
14 14 28 21.7768 2.7553
14 14 32 2.4666 2.0511
14 14 36 47.9577 -8.3806
14 14 40 1.4819 3.8029
14 14 44 18.4972 1.2084
15 0 1 5.9588 1.5639
15 0 3 -13.8664 -4.3888
15 0 5 22.3064 2.2411
15 0 7 25.6722 -4.5886
15 0 9 12.7627 -2.0218
15 0 11 23.0673 0.9374
15 0 13 -6.7054 -4.2207
15 0 15 -1.5355 1.8530
15 0 17 48.1881 -2.7938
15 0 19 21.2692 -2.2786
15 0 21 -14.9644 -0.0566
15 0 23 16.5126 -3.8919
15 0 25 38.0482 0.3776
15 0 27 -7.9059 -1.3857
15 0 29 -4.0056 -0.8256
15 0 31 -12.2066 0.6653
15 0 33 -4.9203 -3.3754
15 0 35 -30.4194 0.3547
15 0 37 -8.1437 -2.1691
15 0 39 -13.6681 -2.1593
15 0 41 33.0888 0.4946
15 0 43 -20.4617 -2.4070
15 0 45 -67.6328 0.8516
15 0 47 43.1616 -2.3842
15 0 49 5.9299 -2.4444
15 0 51 14.8394 -0.0500
15 1 2 20.6528 -1.5793
15 1 4 3.4913 0.7650
15 1 6 5.3709 -3.3990
15 1 8 0.2306 -0.1073
15 1 10 -25.4772 4.2428
15 1 12 -8.6703 -0.9254
15 1 14 2.4872 0.3384
15 1 16 -2.1660 0.1290
15 1 18 32.0705 -1.6664
15 1 20 -11.5587 1.0924
15 1 22 -11.5182 -0.8455
15 1 24 37.7519 0.1558
15 1 26 21.0025 2.4473
15 1 28 -2.8007 -0.1050
15 1 30 -11.2885 -2.1795
15 1 32 11.9500 -0.2702
15 1 34 -22.6218 -0.1798
15 1 36 -1.8578 0.0916
15 1 38 -21.6882 0.8671
15 1 40 7.4321 -0.5391
15 1 42 -2.8781 1.1680
15 1 44 -30.6181 0.1405
15 1 46 -2.0635 -1.8876
15 1 48 -18.0173 0.1136
15 1 50 4.4177 0.2194
15 2 1 5.4640 1.0207
15 2 3 11.6294 -1.0792
15 2 5 17.1785 -0.8159
15 2 7 1.2983 1.7835
15 2 9 22.6008 0.3945
15 2 11 -24.7760 0.3869
15 2 13 -37.1563 1.3213
15 2 15 -8.3886 -1.1285
15 2 17 21.3854 0.8749
15 2 19 -1.2693 -1.4676
15 2 21 40.4901 -0.9562
15 2 23 -27.2551 1.6906
15 2 25 1.3908 -0.1887
15 2 27 -7.5585 0.6063
15 2 29 4.1642 1.1755
15 2 31 6.4234 -0.5162
15 2 33 6.1177 1.0498
15 2 35 -4.0570 -0.7470
15 2 37 -18.3512 0.0258
15 2 39 -0.8482 0.9526
15 2 41 16.4205 -0.5393
15 2 43 0.0573 0.2621
15 2 45 17.4760 -0.1324
15 2 47 -11.1455 -0.1076
15 2 49 1.0338 0.3213
15 2 51 5.0254 -0.1731
15 3 2 0.0328 -0.2521
15 3 4 -5.1100 -1.1681
15 3 6 -2.4361 -0.9022
15 3 8 -1.6936 0.4570
15 3 10 39.3933 1.2809
15 3 12 -46.8648 0.0787
15 3 14 -33.0733 0.8913
15 3 16 5.6768 -1.0198
15 3 18 -6.0277 -0.6208
15 3 20 -5.9232 -0.2975
15 3 22 0.3004 0.6826
15 3 24 2.9167 0.9283
15 3 26 -15.3426 0.3726
15 3 28 0.1624 0.3005
15 3 30 19.4873 0.3558
15 3 32 9.1566 -0.7357
15 3 34 13.2139 -0.3499
15 3 36 -13.5623 0.2399
15 3 38 19.1503 0.1789
15 3 40 11.1126 0.8515
15 3 42 13.7303 0.0033
15 3 44 15.6400 0.1711
15 3 46 -15.3732 -0.5767
15 3 48 -17.8578 -0.6533
15 3 50 -4.3920 0.0242
15 4 1 5.7905 0.3398
15 4 3 10.4148 0.0436
15 4 5 -17.8416 -0.4424
15 4 7 -17.5198 1.1762
15 4 9 -8.6145 0.2988
15 4 11 15.5970 0.6416
15 4 13 0.8103 -1.1191
15 4 15 -2.5335 -1.5319
15 4 17 10.7758 1.5910
15 4 19 -11.4892 -0.5817
15 4 21 -14.6390 0.5469
15 4 23 41.8272 2.5110
15 4 25 -18.4054 -1.2497
15 4 27 10.5198 -0.5663
15 4 29 0.6380 -0.9303
15 4 31 10.9096 -1.6011
15 4 33 -8.5398 2.0552
15 4 35 -0.5115 -0.0093
15 4 37 2.5851 0.3970
15 4 39 9.9002 1.6277
15 4 41 -15.9725 -0.8233
15 4 43 10.6125 -1.3032
15 4 45 6.0827 -0.0289
15 4 47 10.7341 0.3025
15 4 49 0.4851 0.6280
15 5 2 5.5720 0.4973
15 5 4 0.8047 0.2702
15 5 6 -9.6533 0.6225
15 5 8 -5.6564 0.2247
15 5 10 -12.6643 -0.4466
15 5 12 24.9989 0.7241
15 5 14 15.3635 0.0654
15 5 16 -2.3162 0.1493
15 5 18 -18.1973 -1.1139
15 5 20 -28.6591 -1.2014
15 5 22 11.2220 1.0967
15 5 24 -37.4136 -0.2933
15 5 26 -9.8867 0.7640
15 5 28 -7.5383 0.3620
15 5 30 4.9446 -0.0480
15 5 32 8.2652 0.1126
15 5 34 -27.0054 -1.0535
15 5 36 16.7239 -0.6536
15 5 38 10.2645 0.7024
15 5 40 16.2456 -0.1451
15 5 42 0.3240 -0.1534
15 5 44 4.5665 -0.2122
15 5 46 -5.5964 -0.3055
15 5 48 5.8239 -0.1055
15 5 50 13.3047 0.7437
15 6 1 9.7751 0.8061
15 6 3 71.9330 -0.4174
15 6 5 12.9803 -0.5395
15 6 7 14.0998 0.2211
15 6 9 -2.9241 -0.1609
15 6 11 17.0395 -0.0226
15 6 13 15.3793 -1.5674
15 6 15 2.5037 -0.5789
15 6 17 -40.9629 -0.0955
15 6 19 0.6178 -0.7611
15 6 21 46.1531 0.9916
15 6 23 25.0296 0.6411
15 6 25 -9.3141 -0.4937
15 6 27 2.8714 -1.1089
15 6 29 1.1070 -1.8233
15 6 31 39.1017 -0.8616
15 6 33 5.8105 0.5657
15 6 35 16.2504 0.6192
15 6 37 8.0531 -0.1869
15 6 39 -17.1471 0.7364
15 6 41 -20.6988 -0.4968
15 6 43 2.5739 -0.5267
15 6 45 1.6254 -0.1686
15 6 47 -19.6599 -0.7271
15 6 49 1.9239 0.8399
15 7 2 -44.9402 1.0625
15 7 4 -24.7205 -0.8843
15 7 6 -5.7657 0.5524
15 7 8 3.0009 -0.4710
15 7 10 -0.6243 -2.2048
15 7 12 28.6261 0.9509
15 7 14 28.8598 0.7180
15 7 16 4.9619 0.7963
15 7 18 11.6774 -0.4854
15 7 20 -6.1254 -0.3888
15 7 22 3.0306 0.6750
15 7 24 5.5601 -1.3251
15 7 26 -5.4607 -0.4973
15 7 28 -2.9831 0.0680
15 7 30 -0.4973 0.9496
15 7 32 -12.8660 0.8859
15 7 34 -16.9857 -0.7152
15 7 36 -2.7374 0.5203
15 7 38 23.0104 0.1504
15 7 40 15.1787 -0.7336
15 7 42 3.9587 -0.8127
15 7 44 13.6763 -0.7072
15 7 46 14.7443 0.4896
15 7 48 -4.3693 0.4531
15 8 1 7.0420 1.6266
15 8 3 -20.8209 -1.6696
15 8 5 30.2582 -0.1918
15 8 7 -15.4472 1.6371
15 8 9 31.6136 1.3095
15 8 11 10.0393 1.0407
15 8 13 -4.0713 -1.0762
15 8 15 -9.8646 -0.2465
15 8 17 -10.5013 0.2809
15 8 19 15.8099 -0.3714
15 8 21 -38.7396 0.0641
15 8 23 -17.3060 0.6862
15 8 25 6.8393 0.1975
15 8 27 13.4477 0.9419
15 8 29 -5.0965 0.9926
15 8 31 -0.7201 0.5829
15 8 33 7.0974 1.0557
15 8 35 10.1781 -0.2976
15 8 37 8.9133 -0.3020
15 8 39 6.3551 -0.3458
15 8 41 -13.0223 -0.3791
15 8 43 -29.7930 0.1780
15 8 45 9.8582 1.0891
15 8 47 4.2444 0.9195
15 8 49 6.9332 -0.4614
15 9 2 4.7596 0.1050
15 9 4 10.9829 0.7177
15 9 6 -15.2950 3.0026
15 9 8 -1.6465 0.8279
15 9 10 -29.6297 -2.7813
15 9 12 -7.9382 -0.2241
15 9 14 -22.4051 -0.5980
15 9 16 19.4654 -0.8281
15 9 18 21.2642 0.6918
15 9 20 8.3607 0.1208
15 9 22 -38.6079 0.3482
15 9 24 -9.2598 1.7322
15 9 26 -5.0385 -2.4280
15 9 28 13.6624 0.3697
15 9 30 12.8127 2.3243
15 9 32 -0.0021 -1.9443
15 9 34 0.7720 -0.2447
15 9 36 0.7339 -1.2429
15 9 38 28.7091 -0.6556
15 9 40 -15.9916 0.4652
15 9 42 -25.6328 -0.4959
15 9 44 -29.1921 0.6296
15 9 46 10.4221 2.2601
15 9 48 35.1845 0.2468
15 10 1 -12.2120 0.8491
15 10 3 -26.3776 -0.7353
15 10 5 5.8653 0.4119
15 10 7 49.0441 0.0333
15 10 9 -5.3386 -0.1096
15 10 11 -19.2903 -0.0031
15 10 13 5.8219 -0.2423
15 10 15 12.5937 -0.4269
15 10 17 -0.9397 1.5006
15 10 19 3.8883 1.2254
15 10 21 -24.2124 1.1792
15 10 23 3.0799 1.7278
15 10 25 7.1683 -0.3356
15 10 27 -6.4677 -0.1963
15 10 29 25.8903 -0.5641
15 10 31 -17.2402 -0.4561
15 10 33 13.2857 0.8360
15 10 35 -13.3144 1.0708
15 10 37 9.6086 0.5083
15 10 39 -24.5484 1.4914
15 10 41 -5.8342 -0.1257
15 10 43 10.7794 0.0901
15 10 45 -12.5126 -0.1161
15 10 47 1.4422 0.3008
15 11 2 18.3271 0.3085
15 11 4 -22.2707 0.5265
15 11 6 18.7878 0.4896
15 11 8 -40.4582 0.1144
15 11 10 -4.9210 -0.1651
15 11 12 -11.4174 -0.2413
15 11 14 -3.2326 1.3261
15 11 16 0.5121 -0.7787
15 11 18 35.8885 1.4669
15 11 20 10.8651 0.5653
15 11 22 3.4832 -1.5562
15 11 24 6.8864 0.3570
15 11 26 -22.8739 -2.8084
15 11 28 -1.6458 0.4085
15 11 30 14.5937 1.4642
15 11 32 -3.0075 -0.1653
15 11 34 12.4178 1.3459
15 11 36 22.3177 -0.0014
15 11 38 -31.6875 -1.0184
15 11 40 -12.6715 0.4761
15 11 42 7.7374 -1.4363
15 11 44 -9.4927 0.4632
15 11 46 -33.8681 -0.2622
15 12 1 -20.4105 0.2781
15 12 3 1.0434 1.5214
15 12 5 -36.6345 -0.9576
15 12 7 -24.6774 -2.0165
15 12 9 0.9031 -1.1011
15 12 11 6.1307 -0.3048
15 12 13 -12.6037 0.3281
15 12 15 58.1250 0.3565
15 12 17 1.7227 -1.7910
15 12 19 -19.6425 0.7243
15 12 21 3.4873 -0.4810
15 12 23 -8.8970 -2.0891
15 12 25 30.4619 0.2980
15 12 27 26.4232 -0.5367
15 12 29 40.5002 0.4016
15 12 31 -19.1830 0.1570
15 12 33 -0.5830 -2.2158
15 12 35 -4.7359 -0.3477
15 12 37 -19.1614 -0.0622
15 12 39 30.6984 -1.3678
15 12 41 0.2306 0.4697
15 12 43 -12.8369 -1.0007
15 12 45 14.3185 -0.6287
15 13 2 -12.7285 -0.2232
15 13 4 -26.4062 -0.5454
15 13 6 -3.3509 -0.6991
15 13 8 28.9243 -0.1092
15 13 10 -8.5393 1.1766
15 13 12 -30.4569 0.9534
15 13 14 -2.8682 -1.5519
15 13 16 4.1286 0.8718
15 13 18 -40.1616 -0.0770
15 13 20 -19.3721 -0.5216
15 13 22 0.9793 -0.1738
15 13 24 -1.2937 -0.8084
15 13 26 -4.3600 2.4034
15 13 28 -0.6316 0.1263
15 13 30 -15.7780 -1.5349
15 13 32 -12.0966 0.9277
15 13 34 -4.1199 -0.4790
15 13 36 2.1429 0.9365
15 13 38 -11.5443 0.1765
15 13 40 1.3142 -0.1636
15 13 42 32.4813 2.0536
15 13 44 6.4044 -0.6356
15 14 1 -19.3418 -2.9073
15 14 3 -3.6880 5.2324
15 14 5 -17.4839 -1.3979
15 14 7 -19.1523 -3.3594
15 14 9 22.5358 -1.0432
15 14 11 34.6484 -1.2241
15 14 13 -0.3391 6.6757
15 14 15 -12.5545 -0.1346
15 14 17 16.9729 -5.0408
15 14 19 -26.2999 3.5181
15 14 21 2.9492 -0.5630
15 14 23 6.5371 -5.0522
15 14 25 13.2888 0.6974
15 14 27 -1.8332 0.7044
15 14 29 -13.6255 2.0087
15 14 31 8.6522 0.9084
15 14 33 -17.9179 -5.6442
15 14 35 8.8130 1.0660
15 14 37 14.0461 2.6218
15 14 39 -24.9681 -4.1790
15 14 41 -34.7728 1.0789
15 14 43 8.6450 1.4691
15 15 2 -18.1951 1.1107
15 15 6 23.5652 -1.2683
15 15 10 34.0662 2.7025
15 15 14 7.5027 -2.2059
15 15 18 -17.1810 0.1240
15 15 22 34.9322 -0.2737
15 15 26 -1.1955 3.8326
15 15 30 -22.6282 -2.4302
15 15 34 16.5260 -0.0471
15 15 38 -10.3494 -0.4034
15 15 42 1.0585 2.1134
16 0 2 -57.0005 2.1993
16 0 4 31.9898 -2.7583
16 0 6 -27.9977 -2.1702
16 0 8 7.8538 0.3922
16 0 10 29.6506 -5.6785
16 0 12 -14.5187 0.9451
16 0 14 32.5703 -1.8198
16 0 16 29.8148 -0.2748
16 0 18 -0.0228 1.2188
16 0 20 -39.7501 -6.1719
16 0 22 33.0412 -0.1605
16 0 24 1.3410 -0.6879
16 0 26 -6.5905 -2.9573
16 0 28 -12.3097 2.4583
16 0 30 9.6502 -3.1982
16 0 32 -5.3537 0.5087
16 0 34 34.8543 -0.4637
16 0 36 -12.3913 -4.4099
16 0 38 23.0059 1.0044
16 0 40 -8.0701 -2.0274
16 0 42 -28.0132 -0.4304
16 0 44 16.5393 0.4739
16 0 46 8.2150 -4.3566
16 0 48 25.0520 0.6852
16 0 50 -28.1920 -2.8878
16 1 1 -14.5145 2.2879
16 1 3 1.7744 -0.3538
16 1 5 -7.2325 1.3725
16 1 7 -20.8143 -0.8434
16 1 9 17.9742 0.7817
16 1 11 49.4979 0.0887
16 1 13 -3.2203 -2.7981
16 1 15 -13.1231 -0.8008
16 1 17 38.4758 2.0431
16 1 19 -3.7012 1.5405
16 1 21 20.4318 0.4422
16 1 23 3.1495 -1.5004
16 1 25 -5.3741 0.2010
16 1 27 -13.7400 1.0746
16 1 29 -15.8097 -1.8145
16 1 31 -12.0286 -0.1557
16 1 33 11.0347 0.8662
16 1 35 -24.6372 -0.2561
16 1 37 0.8769 -0.7084
16 1 39 0.7595 -1.4545
16 1 41 -10.3590 0.2951
16 1 43 2.6909 3.1400
16 1 45 16.4953 -0.5577
16 1 47 -23.5742 0.1080
16 1 49 3.6158 -1.1149
16 2 2 9.4735 -0.8227
16 2 4 5.6590 -0.5492
16 2 6 -14.1405 -0.4733
16 2 8 -18.8981 0.8089
16 2 10 32.7204 1.4442
16 2 12 19.3059 -0.3749
16 2 14 -51.3818 1.1890
16 2 16 3.4686 1.5032
16 2 18 -25.8555 -0.1933
16 2 20 -20.1412 2.3185
16 2 22 -25.0319 -0.8999
16 2 24 5.6895 0.9156
16 2 26 -3.1122 0.5387
16 2 28 -12.9849 -1.0068
16 2 30 6.8993 1.7977
16 2 32 -1.6515 0.2485
16 2 34 -24.9144 -0.5754
16 2 36 12.9361 2.4335
16 2 38 -34.3550 -0.8065
16 2 40 8.2076 1.1419
16 2 42 22.7614 0.5814
16 2 44 0.1207 -0.1517
16 2 46 -0.6313 -0.1163
16 2 48 -27.0878 0.5546
16 2 50 -5.5910 -2.9205
16 3 3 28.1564 -0.6123
16 3 5 -18.7689 0.0088
16 3 7 -16.9750 -0.8770
16 3 9 -7.7666 -0.2547
16 3 11 8.9100 1.6738
16 3 13 -2.4761 1.1238
16 3 15 10.4946 -0.3396
16 3 17 -15.4509 1.1575
16 3 19 4.3480 -1.0287
16 3 21 22.7246 -0.0651
16 3 23 15.3694 -0.3488
16 3 25 8.1471 -0.8848
16 3 27 -3.0696 -0.3653
16 3 29 30.8827 0.4172
16 3 31 -20.6047 0.4806
16 3 33 -23.0412 0.7211
16 3 35 -12.7673 0.5416
16 3 37 -6.6989 0.7648
16 3 39 -11.2628 -1.3262
16 3 41 -13.0093 0.3739
16 3 43 5.2030 -0.6413
16 3 45 -33.7322 -0.6131
16 3 47 19.4263 0.3477
16 3 49 16.1514 1.2015
16 4 0 -23.6363 -1.6396
16 4 2 -14.7697 -0.5477
16 4 4 -6.8236 0.5115
16 4 6 -3.5351 -0.2882
16 4 8 -11.9388 0.5311
16 4 10 0.4374 1.5107
16 4 12 -20.9807 -1.9033
16 4 14 -1.1500 0.1085
16 4 16 -15.8930 0.0769
16 4 18 -1.2120 -0.0611
16 4 20 -13.3968 -1.8658
16 4 22 4.4549 -0.1097
16 4 24 -22.4864 -0.1394
16 4 26 -21.9463 -0.2788
16 4 28 -2.1706 -0.1914
16 4 30 -5.5497 0.5220
16 4 32 15.8862 0.2800
16 4 34 -14.7482 0.0746
16 4 36 -2.3367 -1.0531
16 4 38 21.9613 -0.4392
16 4 40 -8.5888 0.0767
16 4 42 16.9848 -0.1571
16 4 44 -11.3854 -1.3310
16 4 46 3.5050 1.4225
16 4 48 11.4627 -0.1861
16 5 1 -6.9792 -0.8029
16 5 3 12.4643 1.4302
16 5 5 -20.1690 -0.3209
16 5 7 -11.9647 -1.5316
16 5 9 8.1489 0.1866
16 5 11 -18.5417 -0.9441
16 5 13 -1.0816 -0.4815
16 5 15 -16.7440 0.7055
16 5 17 29.1152 -1.0263
16 5 19 13.8506 1.0678
16 5 21 19.5504 0.1588
16 5 23 10.3915 -0.3102
16 5 25 -25.3881 -0.2022
16 5 27 -10.8302 -0.5781
16 5 29 0.0837 0.2746
16 5 31 17.3886 -0.2100
16 5 33 -5.9145 1.3631
16 5 35 -7.9386 0.1453
16 5 37 -3.2403 -1.0655
16 5 39 -2.1219 -0.1798
16 5 41 0.6154 -0.5756
16 5 43 10.4254 -0.3619
16 5 45 18.4225 0.3496
16 5 47 -20.8473 -0.7606
16 5 49 0.5798 4.6947
16 6 0 -16.8880 -2.7815
16 6 2 48.9735 0.1087
16 6 4 -14.3838 -0.6149
16 6 6 10.1305 1.4429
16 6 8 -1.4031 0.2936
16 6 10 -63.4714 -0.7454
16 6 12 13.0397 -0.0405
16 6 14 9.9738 0.5398
16 6 16 0.4938 -0.1967
16 6 18 6.6470 0.1493
16 6 20 0.8914 -1.8076
16 6 22 -9.8901 -0.6301
16 6 24 21.3148 -0.7901
16 6 26 -12.1110 0.1862
16 6 28 -17.0865 0.1012
16 6 30 -13.5337 0.4840
16 6 32 -0.6054 0.0081
16 6 34 2.2105 -0.6532
16 6 36 4.8876 -1.3560
16 6 38 11.6750 -0.2890
16 6 40 2.4138 -0.6875
16 6 42 8.0602 1.0116
16 6 44 -1.3993 -0.1142
16 6 46 -14.8110 0.3520
16 6 48 -14.4238 0.5380
16 7 1 -9.8767 0.0962
16 7 3 -14.1521 -0.3461
16 7 5 21.3010 -0.3955
16 7 7 29.6519 1.5626
16 7 9 8.8107 -0.7875
16 7 11 -20.5897 -0.9853
16 7 13 -29.4485 0.6441
16 7 15 35.5403 0.9339
16 7 17 -13.0234 -1.2828
16 7 19 0.9163 0.5174
16 7 21 -28.3438 0.0065
16 7 23 18.9475 0.5314
16 7 25 -2.7515 -0.6116
16 7 27 0.6416 -0.3519
16 7 29 -2.7368 -0.0408
16 7 31 1.4305 0.4658
16 7 33 -0.6646 -0.5194
16 7 35 -14.7918 0.5115
16 7 37 12.1886 -0.1082
16 7 39 10.9368 0.4384
16 7 41 -12.3737 -0.3222
16 7 43 3.3276 -0.9813
16 7 45 -17.2836 0.1114
16 7 47 9.4164 0.1082
16 8 0 6.9129 -1.3214
16 8 2 1.3919 -0.3109
16 8 4 -23.1903 -0.2944
16 8 6 -5.7925 1.5991
16 8 8 20.7362 0.5083
16 8 10 25.7883 -0.9780
16 8 12 9.2585 0.2768
16 8 14 -13.2737 -0.7260
16 8 16 5.2478 1.1080
16 8 18 34.3045 0.1805
16 8 20 -6.9306 0.7190
16 8 22 -21.0188 -0.6674
16 8 24 -12.7229 1.0823
16 8 26 20.7746 0.4751
16 8 28 -3.2451 0.4894
16 8 30 -24.5506 0.3280
16 8 32 -27.2764 0.7181
16 8 34 -18.9109 -0.3168
16 8 36 -2.2974 1.3134
16 8 38 0.6760 -0.2089
16 8 40 0.9992 0.5661
16 8 42 -13.4049 0.1542
16 8 44 30.6249 -0.2531
16 8 46 -8.7601 0.3399
16 8 48 6.2247 0.6486
16 9 1 -2.1722 -0.4485
16 9 3 0.2704 -4.1151
16 9 5 43.6400 -0.4285
16 9 7 11.6934 2.9334
16 9 9 9.3915 -1.2965
16 9 11 41.8822 -0.4323
16 9 13 11.7925 2.8368
16 9 15 -1.3267 -0.2070
16 9 17 -8.6964 -0.8268
16 9 19 -26.0685 -2.4811
16 9 21 25.4270 0.6027
16 9 23 12.5338 1.6228
16 9 25 19.6793 -0.0036
16 9 27 -1.0540 -0.4803
16 9 29 -9.3142 1.4415
16 9 31 3.2118 -0.1813
16 9 33 -14.0979 -2.3596
16 9 35 10.4752 -0.5669
16 9 37 -12.9972 1.2682
16 9 39 -16.2090 0.9211
16 9 41 17.7147 0.7488
16 9 43 -11.4228 -1.5644
16 9 45 -9.8152 1.0740
16 9 47 8.1801 0.2458
16 10 0 45.0819 -0.9934
16 10 2 -49.3748 -0.6359
16 10 4 29.4824 -0.7016
16 10 6 -15.8015 1.3571
16 10 8 -32.0503 -0.7779
16 10 10 11.5366 1.0283
16 10 12 -51.3155 0.1590
16 10 14 21.5390 0.0843
16 10 16 6.4781 1.5450
16 10 18 -22.8946 0.4646
16 10 20 23.3644 0.0737
16 10 22 29.3623 0.6404
16 10 24 -1.7665 0.2538
16 10 26 -15.8114 0.7177
16 10 28 -25.3245 0.3664
16 10 30 7.2172 0.1101
16 10 32 -31.0586 -0.1290
16 10 34 18.7484 0.0655
16 10 36 -14.4786 -0.9914
16 10 38 5.0010 0.3996
16 10 40 29.2698 1.6026
16 10 42 -20.8419 0.0105
16 10 44 0.5043 0.4284
16 10 46 35.7519 0.4659
16 11 1 -15.9241 -1.4823
16 11 3 6.0065 -0.4266
16 11 5 5.4904 -0.4197
16 11 7 16.5132 1.8839
16 11 9 6.0857 -0.4106
16 11 11 -22.5396 0.3840
16 11 13 30.9796 1.4218
16 11 15 -0.5435 0.4633
16 11 17 16.2012 -1.3740
16 11 19 -15.9298 -1.1297
16 11 21 -16.2493 0.3152
16 11 23 10.8693 0.8788
16 11 25 -13.6986 -0.6562
16 11 27 -0.5951 -0.2969
16 11 29 11.6741 -0.2528
16 11 31 -10.6068 0.0764
16 11 33 11.7805 -1.5229
16 11 35 2.1466 0.2781
16 11 37 -11.2064 1.0374
16 11 39 -4.3095 1.8449
16 11 41 23.1245 0.2028
16 11 43 -9.2145 -1.1202
16 11 45 25.7323 -0.2290
16 12 0 1.0054 0.0541
16 12 2 47.6873 -0.4046
16 12 4 5.3459 0.0030
16 12 6 -42.1817 -0.2513
16 12 8 -8.1178 -0.1014
16 12 10 -26.2157 -0.5354
16 12 12 -9.6408 -0.1118
16 12 14 3.3623 -0.6975
16 12 16 -6.7710 0.6907
16 12 18 -23.2344 -0.2312
16 12 20 8.9523 -1.0343
16 12 22 -13.0939 0.1953
16 12 24 -45.6458 -0.0221
16 12 26 -13.4272 -0.4323
16 12 28 24.4312 0.5494
16 12 30 -28.6547 -0.9471
16 12 32 27.4042 0.7133
16 12 34 3.8182 0.3714
16 12 36 -4.0027 -1.6761
16 12 38 12.4171 0.2787
16 12 40 -0.2695 0.8056
16 12 42 34.6391 -0.9587
16 12 44 -13.0384 -0.3037
16 13 1 -24.2252 -0.2510
16 13 3 17.8467 3.6293
16 13 5 -9.0855 0.8713
16 13 7 -17.4760 -2.6352
16 13 9 -27.1176 0.3628
16 13 11 17.5364 -1.0074
16 13 13 20.4954 -2.2843
16 13 15 -17.8037 0.0728
16 13 17 -11.5773 0.8789
16 13 19 4.6138 1.7574
16 13 21 -19.8802 0.1444
16 13 23 -13.1291 -1.3712
16 13 25 11.4248 0.2964
16 13 27 11.0247 0.0932
16 13 29 4.6255 -0.8264
16 13 31 42.9373 -0.1281
16 13 33 6.8250 2.1741
16 13 35 -6.8854 0.3380
16 13 37 9.9118 -0.7394
16 13 39 -9.7222 -0.2999
16 13 41 -15.6767 -0.4848
16 13 43 27.5740 2.5634
16 14 0 -13.6099 -0.1537
16 14 2 35.9289 -0.0960
16 14 4 0.3804 2.4552
16 14 6 17.2301 -0.4063
16 14 8 22.5591 -0.1293
16 14 10 9.8784 -1.0185
16 14 12 6.0267 0.9654
16 14 14 -12.2632 0.0789
16 14 16 3.6165 -2.4546
16 14 18 6.0850 0.3641
16 14 20 16.4000 2.7566
16 14 22 12.1307 0.4131
16 14 24 20.1105 -0.9301
16 14 26 -22.4511 -0.6933
16 14 28 -2.4664 -0.7524
16 14 30 21.6873 -1.2235
16 14 32 16.3494 -1.8268
16 14 34 28.1029 0.6249
16 14 36 36.6562 1.7653
16 14 38 -1.4567 0.0310
16 14 40 18.8268 -0.7007
16 14 42 4.2927 -0.7508
16 15 1 50.3718 1.1651
16 15 3 13.8652 2.9878
16 15 5 -1.1570 0.5283
16 15 7 1.8730 -3.3429
16 15 9 -12.6403 1.2201
16 15 11 -24.9304 0.4426
16 15 13 -40.7847 -3.4432
16 15 15 -49.6634 0.0651
16 15 17 7.9805 4.0096
16 15 19 20.4838 3.1733
16 15 21 -4.3177 -0.4832
16 15 23 15.9140 -3.3156
16 15 25 20.0088 -0.8430
16 15 27 -13.0536 0.1643
16 15 29 31.4564 -1.7859
16 15 31 -11.1353 0.3582
16 15 33 2.1128 4.7382
16 15 35 11.3103 1.5195
16 15 37 6.7840 -1.4231
16 15 39 -4.5659 -2.5834
16 15 41 -23.0364 -1.2533
16 16 0 26.7515 0.4462
16 16 4 13.2707 5.7679
16 16 8 -35.2886 2.5149
16 16 12 -6.1953 0.9733
16 16 16 -8.2929 -9.5503
16 16 20 -16.5354 9.0090
16 16 24 18.7016 -1.3093
16 16 28 14.8285 -1.1934
16 16 32 -27.2347 -3.4047
16 16 36 -21.8810 7.7246
16 16 40 5.5016 -5.8240
17 0 1 9.2369 0.1028
17 0 3 -65.8363 -3.6607
17 0 5 -32.7464 1.2539
17 0 7 9.1368 -2.8198
17 0 9 25.5097 0.0122
17 0 11 16.2303 -1.2566
17 0 13 -50.1249 -5.0243
17 0 15 -27.8263 0.5023
17 0 17 21.6526 -3.2520
17 0 19 -4.0262 -0.1990
17 0 21 23.1991 1.4115
17 0 23 21.1298 -1.9942
17 0 25 11.5104 1.5910
17 0 27 13.5187 -4.2909
17 0 29 21.5816 -3.6323
17 0 31 19.3145 0.3325
17 0 33 9.0054 -3.0773
17 0 35 -1.0812 1.7262
17 0 37 8.2283 -0.8539
17 0 39 -16.9683 -1.4400
17 0 41 18.9458 0.9254
17 0 43 -12.6788 -5.1560
17 0 45 0.5537 -0.7673
17 0 47 22.4363 0.1848
17 0 49 -0.9957 -1.4026
17 1 2 23.9452 0.5865
17 1 4 -9.4829 -1.3095
17 1 6 6.7463 0.2664
17 1 8 25.3911 0.5349
17 1 10 14.1952 -0.1525
17 1 12 12.9198 0.2247
17 1 14 2.3748 -0.4329
17 1 16 -10.6394 -0.0881
17 1 18 -0.3018 -0.1517
17 1 20 59.8223 -0.0523
17 1 22 -24.9944 0.0193
17 1 24 4.9092 0.7247
17 1 26 36.8648 -0.3858
17 1 28 -26.0792 0.3195
17 1 30 0.9647 -0.0613
17 1 32 -26.3866 -0.5629
17 1 34 -23.0013 -0.1824
17 1 36 -6.1578 -0.0346
17 1 38 -19.9392 -0.1454
17 1 40 31.3792 1.0999
17 1 42 -1.1094 0.7262
17 1 44 -19.4609 0.5748
17 1 46 -10.2585 -0.6082
17 1 48 -31.5295 -0.5183
17 2 1 -6.0665 0.2506
17 2 3 3.1395 -1.2590
17 2 5 14.8479 0.4557
17 2 7 23.7957 -0.6688
17 2 9 0.5152 -0.5725
17 2 11 7.9678 0.0425
17 2 13 -15.0886 2.2805
17 2 15 -27.6706 -0.4654
17 2 17 -1.2611 1.2833
17 2 19 24.8779 2.2117
17 2 21 15.6699 0.9430
17 2 23 12.9785 0.7053
17 2 25 9.9273 -0.2806
17 2 27 0.4251 0.3555
17 2 29 10.6404 0.0560
17 2 31 -3.1005 -0.3648
17 2 33 -11.8985 0.6217
17 2 35 -17.2320 0.8379
17 2 37 3.5176 1.9257
17 2 39 10.6471 -0.2389
17 2 41 3.5416 0.1133
17 2 43 -6.8068 1.1557
17 2 45 7.2701 -0.5598
17 2 47 8.5227 -0.1938
17 2 49 -1.0793 -2.7070
17 3 2 17.6551 1.1365
17 3 4 -38.0119 0.4414
17 3 6 -20.6620 0.4619
17 3 8 -27.5164 -0.1770
17 3 10 -25.4958 -0.6752
17 3 12 -28.8230 -0.9729
17 3 14 -37.5993 1.1374
17 3 16 2.7871 -0.1954
17 3 18 17.0915 0.2736
17 3 20 1.8041 0.3545
17 3 22 7.0521 -0.4746
17 3 24 -2.2329 -0.2037
17 3 26 -14.6569 -1.1487
17 3 28 -29.8162 -0.0798
17 3 30 1.6356 0.6643
17 3 32 20.3128 0.0373
17 3 34 23.3631 0.8051
17 3 36 1.9458 -0.0615
17 3 38 35.7708 0.0272
17 3 40 27.8002 -0.4128
17 3 42 -2.0159 -1.4237
17 3 44 35.6605 0.3529
17 3 46 -3.8007 -0.3131
17 3 48 -5.9740 0.1518
17 4 1 10.7055 1.5257
17 4 3 34.7879 -0.9695
17 4 5 2.5922 -0.2398
17 4 7 -21.5213 0.5059
17 4 9 -23.6492 -0.4418
17 4 11 8.7966 0.4170
17 4 13 23.9123 2.1128
17 4 15 16.7111 -0.1366
17 4 17 16.1521 -2.0391
17 4 19 -15.8530 0.0848
17 4 21 1.8803 -1.0304
17 4 23 8.8329 -2.3510
17 4 25 4.7517 0.5239
17 4 27 1.8930 0.2254
17 4 29 -7.7208 0.7782
17 4 31 26.4886 0.5657
17 4 33 -2.3840 -1.7204
17 4 35 -0.6222 -0.4086
17 4 37 -0.0927 0.0245
17 4 39 1.5893 -2.0896
17 4 41 -14.4444 0.0132
17 4 43 7.9414 1.3358
17 4 45 -19.6423 0.6128
17 4 47 -29.4360 -0.4193
17 5 2 -18.9596 0.6656
17 5 4 -8.7450 -0.3050
17 5 6 13.4235 0.2799
17 5 8 25.8792 -0.0655
17 5 10 0.5713 -1.5959
17 5 12 -11.6586 -0.3731
17 5 14 -0.4732 -0.3896
17 5 16 24.9895 -0.5364
17 5 18 -18.8739 0.1603
17 5 20 -9.8608 -0.1132
17 5 22 -7.0228 0.8028
17 5 24 2.4156 -0.3557
17 5 26 -42.9291 -0.2625
17 5 28 43.5718 0.1872
17 5 30 3.0870 0.9492
17 5 32 -10.3600 0.1906
17 5 34 3.5565 -0.3783
17 5 36 -8.4053 -0.0805
17 5 38 28.9263 -0.2259
17 5 40 -15.3641 -0.4393
17 5 42 5.1096 -0.2392
17 5 44 -1.7693 0.1551
17 5 46 -15.1269 1.3329
17 5 48 12.7524 -0.6399
17 6 1 3.7266 1.3275
17 6 3 24.5691 -0.3222
17 6 5 28.0956 -0.0970
17 6 7 -38.0716 0.6216
17 6 9 2.2842 -0.1712
17 6 11 -36.6006 -0.2137
17 6 13 20.5344 -0.6590
17 6 15 18.8242 -0.3228
17 6 17 9.8283 -0.8545
17 6 19 -7.4624 -0.1951
17 6 21 -1.4683 -0.2341
17 6 23 5.1627 -1.3147
17 6 25 -15.3501 0.3583
17 6 27 4.5981 -0.3121
17 6 29 21.5137 -0.2882
17 6 31 18.9053 0.0766
17 6 33 13.6853 -1.0672
17 6 35 7.4374 -0.1166
17 6 37 16.7293 -0.4276
17 6 39 -10.4350 -0.3778
17 6 41 -11.5908 -0.2199
17 6 43 2.3617 -0.6324
17 6 45 -8.7603 0.3034
17 6 47 2.5753 -0.2148
17 7 2 3.0332 -0.4827
17 7 4 44.2708 1.1344
17 7 6 26.5735 0.4302
17 7 8 -32.3603 0.1004
17 7 10 27.4665 -0.1765
17 7 12 4.6105 0.1615
17 7 14 3.2141 -0.9026
17 7 16 15.5100 -0.8713
17 7 18 4.0613 0.1494
17 7 20 -1.8078 -0.2296
17 7 22 16.2380 0.8776
17 7 24 10.6627 0.7554
17 7 26 25.6648 0.8277
17 7 28 0.8566 0.1166
17 7 30 11.2838 -0.5069
17 7 32 23.4069 -0.7292
17 7 34 -27.6038 -0.6993
17 7 36 18.4444 -0.4793
17 7 38 7.0198 -0.1005
17 7 40 -22.1936 -0.1108
17 7 42 25.2710 -0.0086
17 7 44 -9.7886 -0.2572
17 7 46 -2.1836 0.8283
17 8 1 -30.0847 0.2897
17 8 3 5.6046 2.2239
17 8 5 -13.8179 -0.7031
17 8 7 -4.3075 0.0876
17 8 9 22.9109 -0.7469
17 8 11 30.3413 -0.2883
17 8 13 -16.5634 0.2303
17 8 15 11.3773 0.0407
17 8 17 -19.6953 0.5723
17 8 19 12.1031 0.2976
17 8 21 -25.8583 0.8540
17 8 23 4.7712 0.7770
17 8 25 7.6624 -0.8250
17 8 27 2.7239 0.2122
17 8 29 23.7301 -0.6079
17 8 31 8.6627 -0.8358
17 8 33 37.7630 0.9381
17 8 35 15.1221 0.6352
17 8 37 -21.5942 0.2534
17 8 39 -7.9427 1.4656
17 8 41 -17.4101 0.0401
17 8 43 -11.8591 0.0097
17 8 45 25.4124 0.0596
17 8 47 4.4530 -0.6300
17 9 2 -16.3057 -0.1403
17 9 4 -27.7161 0.7618
17 9 6 -25.4501 -2.2304
17 9 8 3.3281 -0.6375
17 9 10 -41.4299 1.5873
17 9 12 6.5340 0.2358
17 9 14 -13.6332 1.0143
17 9 16 -43.1404 0.1390
17 9 18 41.0083 -0.2633
17 9 20 -16.5324 0.9792
17 9 22 -25.4501 -1.2526
17 9 24 -34.4378 -0.0742
17 9 26 14.2657 0.7345
17 9 28 -1.1656 0.0787
17 9 30 -2.6627 -0.8574
17 9 32 -25.1074 0.1309
17 9 34 5.2288 0.5335
17 9 36 -7.4159 -0.0909
17 9 38 -3.7168 0.4916
17 9 40 -6.6676 -0.2240
17 9 42 -23.1862 -0.0463
17 9 44 3.4020 -0.2740
17 9 46 8.7794 -0.0346
17 10 1 -33.2421 -0.2474
17 10 3 -5.5706 0.6736
17 10 5 -24.3848 -1.4889
17 10 7 14.7013 -0.0671
17 10 9 -10.7600 -0.1568
17 10 11 40.3032 0.5528
17 10 13 11.1963 1.3136
17 10 15 8.2606 0.3314
17 10 17 14.0357 0.4112
17 10 19 -6.4255 -0.7018
17 10 21 21.2557 -0.4402
17 10 23 1.2786 -0.2955
17 10 25 4.4676 0.0033
17 10 27 2.2491 1.6214
17 10 29 -8.2296 2.0436
17 10 31 3.6227 0.1134
17 10 33 -18.1760 -0.2653
17 10 35 13.2049 -0.5310
17 10 37 16.4417 -0.5033
17 10 39 -23.2953 0.0545
17 10 41 -20.9792 0.3196
17 10 43 -8.6683 0.8886
17 10 45 -35.6698 0.4654
17 11 2 -27.8016 0.4291
17 11 4 -19.3374 0.5745
17 11 6 -2.3691 0.0217
17 11 8 -11.5676 -0.0584
17 11 10 25.3020 1.2969
17 11 12 -14.6088 -0.2952
17 11 14 0.1596 -0.9407
17 11 16 -3.4256 -0.8810
17 11 18 13.1835 -0.9555
17 11 20 3.3006 0.3641
17 11 22 2.7387 0.0613
17 11 24 13.1737 0.4345
17 11 26 -17.3267 2.2866
17 11 28 -8.1532 -0.2484
17 11 30 0.9040 -1.6412
17 11 32 -12.3498 -0.3320
17 11 34 8.7544 -0.8178
17 11 36 52.3265 -0.1946
17 11 38 -23.5307 0.6329
17 11 40 12.1233 0.4514
17 11 42 -17.6853 1.5222
17 11 44 -26.4391 -0.0188
17 12 1 -11.6375 -0.1654
17 12 3 -25.2286 0.6612
17 12 5 13.3267 -0.6862
17 12 7 3.7650 -1.3178
17 12 9 60.2407 -0.7438
17 12 11 -2.7625 -0.4529
17 12 13 14.0385 0.5071
17 12 15 29.8358 -0.0636
17 12 17 -12.5918 -0.7135
17 12 19 -9.2455 1.2214
17 12 21 3.0328 -0.2353
17 12 23 -1.2394 -0.1974
17 12 25 6.9094 -0.6270
17 12 27 19.0152 -0.5955
17 12 29 11.4761 0.0810
17 12 31 -5.5836 -0.3556
17 12 33 -6.3737 -0.8336
17 12 35 6.4076 0.4361
17 12 37 -37.2734 0.4122
17 12 39 26.8501 -0.9939
17 12 41 11.5963 0.4918
17 12 43 -20.3820 0.7871
17 13 2 28.1581 0.7871
17 13 4 -12.7370 -0.7332
17 13 6 -59.0964 -0.8353
17 13 8 9.2498 -0.4975
17 13 10 -4.9655 1.1727
17 13 12 33.3910 0.2701
17 13 14 0.2666 -0.8291
17 13 16 1.6370 0.3322
17 13 18 -19.6278 -0.7549
17 13 20 -1.9487 0.4049
17 13 22 -9.0039 -0.5035
17 13 24 -15.2634 -1.1401
17 13 26 -10.5296 0.9493
17 13 28 -3.5224 -0.1239
17 13 30 -4.7510 -1.0380
17 13 32 29.9326 1.1784
17 13 34 2.7279 -0.1271
17 13 36 -14.7359 0.0725
17 13 38 8.7843 0.2119
17 13 40 6.4490 0.2641
17 13 42 12.6883 0.9441
17 14 1 -1.6878 1.2519
17 14 3 -9.6332 -1.0976
17 14 5 -10.0005 0.2031
17 14 7 19.0223 -0.9203
17 14 9 -10.5263 0.6235
17 14 11 12.3161 0.2168
17 14 13 -10.2011 -1.4866
17 14 15 26.8835 0.3741
17 14 17 41.9061 0.3193
17 14 19 -7.1426 -0.5767
17 14 21 -47.8639 -0.2678
17 14 23 -7.0684 0.1879
17 14 25 4.0773 0.2882
17 14 27 0.9663 -0.6811
17 14 29 -21.3995 -0.3869
17 14 31 -41.0797 0.4383
17 14 33 -7.1945 0.1597
17 14 35 -7.5714 -0.3324
17 14 37 27.6469 -0.2550
17 14 39 -25.4475 -0.1522
17 14 41 -2.4637 0.4290
17 15 2 -4.5067 -0.1495
17 15 4 36.2047 -0.2602
17 15 6 56.4270 0.6949
17 15 8 27.7698 0.3634
17 15 10 20.2929 -0.4974
17 15 12 -5.5742 0.4317
17 15 14 -5.8842 0.0567
17 15 16 19.4867 -0.2049
17 15 18 -25.1292 -0.6045
17 15 20 14.7738 -0.3187
17 15 22 6.5706 0.9737
17 15 24 8.6369 -0.1221
17 15 26 10.8987 0.9429
17 15 28 4.2227 0.1771
17 15 30 -17.4790 -0.5290
17 15 32 -39.3028 0.1693
17 15 34 -5.4514 -0.5053
17 15 36 -29.2439 0.5388
17 15 38 -11.2313 0.0892
17 15 40 20.9339 0.3831
17 16 1 -14.2648 1.0492
17 16 3 2.2521 -3.8062
17 16 5 -11.6018 0.8947
17 16 7 -4.8647 0.7453
17 16 9 34.0992 0.7114
17 16 11 -35.4221 0.9558
17 16 13 -11.8083 -1.8326
17 16 15 -54.1558 0.4993
17 16 17 -7.5158 1.7892
17 16 19 -16.8545 -1.5044
17 16 21 28.1625 -0.1816
17 16 23 1.8405 1.4493
17 16 25 12.5756 -0.6196
17 16 27 -16.4762 -0.1390
17 16 29 21.6157 -1.2449
17 16 31 16.0302 0.6395
17 16 33 -15.9548 2.8397
17 16 35 -22.2219 -1.0764
17 16 37 -14.8648 -0.4756
17 16 39 -10.2055 0.7222
17 17 2 -29.2122 -0.1833
17 17 6 17.5273 0.1563
17 17 10 -5.7567 0.0562
17 17 14 16.4285 0.4460
17 17 18 11.1653 -0.8102
17 17 22 -25.7061 0.4493
17 17 26 -31.8732 0.8132
17 17 30 21.5945 0.0359
17 17 34 -6.0781 -0.7539
17 17 38 1.4348 0.1902
18 0 2 -39.0302 -1.6330
18 0 4 -26.5639 -2.4545
18 0 6 22.7345 -3.7766
18 0 8 -13.9406 1.9583
18 0 10 26.3036 -4.3400
18 0 12 5.8175 0.2571
18 0 14 -5.7516 -1.5164
18 0 16 17.2295 -4.4287
18 0 18 12.6568 0.9434
18 0 20 6.3588 -2.5398
18 0 22 -17.3541 -0.2633
18 0 24 -10.0260 -0.8145
18 0 26 -7.4359 -2.6074
18 0 28 -52.9686 0.7711
18 0 30 -39.5730 -2.7840
18 0 32 -1.0526 -0.7492
18 0 34 -4.6043 -1.0130
18 0 36 -5.4345 -1.5591
18 0 38 3.0286 0.3843
18 0 40 2.9076 -3.5348
18 0 42 15.6059 -0.8355
18 0 44 -19.1967 -0.3616
18 0 46 13.0905 -1.8186
18 0 48 42.8639 1.0049
18 1 3 13.9694 -0.5220
18 1 5 13.9050 -0.8668
18 1 7 -21.8150 -0.7163
18 1 9 16.1235 -0.5752
18 1 11 31.5534 -0.1816
18 1 13 36.5081 3.1330
18 1 15 -2.8716 0.4001
18 1 17 10.2566 0.6892
18 1 19 12.0625 -0.9518
18 1 21 42.6508 0.0961
18 1 23 5.6617 0.2206
18 1 25 -21.7282 -0.8158
18 1 27 -25.8775 -1.6298
18 1 29 -16.2697 1.2716
18 1 31 -5.8155 0.0092
18 1 33 -23.6478 0.2226
18 1 35 10.8299 0.4327
18 1 37 30.6002 0.4906
18 1 39 -41.0539 0.1398
18 1 41 25.5715 -0.5599
18 1 43 -1.2889 -0.9726
18 1 45 31.4469 0.1130
18 1 47 -17.3969 -0.0702
18 2 2 -0.1676 -0.0460
18 2 4 -15.0157 -0.2218
18 2 6 10.4839 1.5930
18 2 8 11.1083 -0.3930
18 2 10 -0.6506 1.7495
18 2 12 5.6267 0.0646
18 2 14 0.4116 1.4777
18 2 16 0.5415 0.4340
18 2 18 -23.0760 -0.3947
18 2 20 -13.2086 0.6183
18 2 22 7.0872 0.5583
18 2 24 -12.0556 -0.7309
18 2 26 -28.1811 2.2829
18 2 28 8.2579 0.3768
18 2 30 -1.6386 1.1473
18 2 32 -0.8092 -0.3369
18 2 34 -10.2145 1.2014
18 2 36 -7.8716 0.3446
18 2 38 -15.4321 0.1713
18 2 40 1.3459 -0.0496
18 2 42 -3.2090 0.2282
18 2 44 -20.7669 -0.1306
18 2 46 5.3707 0.8077
18 2 48 -5.9459 -0.1671
18 3 1 15.4417 -0.2442
18 3 3 10.6511 0.8174
18 3 5 -10.1239 0.2229
18 3 7 -4.6961 1.5383
18 3 9 23.7807 -0.5340
18 3 11 9.9239 -0.1774
18 3 13 13.2003 -0.5187
18 3 15 -18.1860 0.7792
18 3 17 1.6166 -0.3752
18 3 19 -9.8301 0.1581
18 3 21 -19.5377 0.5124
18 3 23 0.7081 -0.2175
18 3 25 -19.0887 -0.4224
18 3 27 -18.5715 0.9248
18 3 29 15.6248 -0.9702
18 3 31 7.3024 0.7078
18 3 33 -17.4385 -0.2826
18 3 35 -13.7231 -0.5871
18 3 37 -4.5738 -0.0425
18 3 39 -1.1381 0.3028
18 3 41 -42.1740 -0.5573
18 3 43 19.2398 1.0417
18 3 45 3.8937 -0.7639
18 3 47 -20.8605 -0.1285
18 4 0 39.1368 -4.4406
18 4 2 1.1506 -0.2058
18 4 4 38.0068 -0.0148
18 4 6 -3.4786 1.2862
18 4 8 0.2771 0.3575
18 4 10 -0.6955 -0.2618
18 4 12 -1.4614 1.2792
18 4 14 -2.2026 0.0038
18 4 16 0.5444 -1.2420
18 4 18 17.6306 -1.1060
18 4 20 -1.8136 1.8774
18 4 22 14.6486 -0.7239
18 4 24 -1.6861 -0.8065
18 4 26 11.6675 0.4127
18 4 28 -23.5802 0.6713
18 4 30 10.9602 -0.4095
18 4 32 -4.8731 -0.7189
18 4 34 3.3147 -0.2234
18 4 36 16.6386 1.7440
18 4 38 1.6569 -0.7353
18 4 40 6.5622 -0.9280
18 4 42 7.5719 -0.2420
18 4 44 46.6333 0.0685
18 4 46 -4.3243 -1.5730
18 5 1 -11.9973 -0.5223
18 5 3 -0.7255 -2.2868
18 5 5 -4.9191 0.1785
18 5 7 16.9399 1.1061
18 5 9 -33.6188 -0.2376
18 5 11 -13.9378 0.3401
18 5 13 -2.6015 1.5781
18 5 15 -15.1972 -0.1472
18 5 17 -10.6644 -1.3378
18 5 19 -8.8082 -0.7111
18 5 21 3.6615 -0.1950
18 5 23 6.1874 1.3440
18 5 25 1.4233 0.7896
18 5 27 -6.3209 -0.3233
18 5 29 -1.4542 1.5851
18 5 31 10.1123 -0.3792
18 5 33 -16.9374 -1.5893
18 5 35 -13.7284 -0.5839
18 5 37 -10.0106 0.5887
18 5 39 21.1901 0.0098
18 5 41 -10.1285 0.2342
18 5 43 1.0779 -0.7800
18 5 45 -0.4891 0.4173
18 5 47 9.9181 0.3482
18 6 0 -5.6559 -1.4205
18 6 2 51.4125 -0.4800
18 6 4 1.9541 -0.0689
18 6 6 -21.9290 0.5644
18 6 8 20.9990 -0.3454
18 6 10 -35.6549 -0.5522
18 6 12 -4.1485 -0.1637
18 6 14 -14.1910 -0.9177
18 6 16 1.0459 -1.1536
18 6 18 -1.4289 0.5551
18 6 20 3.4221 -1.0675
18 6 22 -12.3778 0.2421
18 6 24 0.8787 -0.5176
18 6 26 -11.1042 -1.3058
18 6 28 -1.2260 0.4058
18 6 30 -0.2099 -1.1562
18 6 32 -13.4142 -0.8269
18 6 34 -24.5473 0.2102
18 6 36 -15.1933 -0.6159
18 6 38 9.5440 0.3319
18 6 40 -8.4549 -0.4131
18 6 42 11.9744 -0.1511
18 6 44 43.8274 -0.8468
18 6 46 -0.9677 -0.8194
18 7 1 3.6449 -1.2753
18 7 3 -10.7893 -0.7257
18 7 5 9.7838 -0.0769
18 7 7 10.0999 -0.0079
18 7 9 -6.8033 0.3311
18 7 11 16.7423 0.3837
18 7 13 3.3932 0.7412
18 7 15 33.4860 0.0300
18 7 17 22.3293 -2.2277
18 7 19 9.2136 0.1504
18 7 21 -11.9324 -0.6901
18 7 23 -7.8115 1.3364
18 7 25 8.7037 0.6109
18 7 27 12.5180 0.1866
18 7 29 -6.0642 0.9530
18 7 31 -5.2386 -0.4282
18 7 33 8.4387 -0.5362
18 7 35 -27.0941 -0.3265
18 7 37 -13.8004 -0.5853
18 7 39 -5.0797 0.7660
18 7 41 14.6608 -0.0119
18 7 43 -5.8324 -0.5766
18 7 45 2.4773 0.7394
18 8 0 -27.9364 -0.2399
18 8 2 -26.4219 0.1516
18 8 4 0.5368 0.8727
18 8 6 3.5143 0.5665
18 8 8 -20.6249 -0.2448
18 8 10 34.1846 0.1704
18 8 12 15.5138 0.6533
18 8 14 -21.2823 0.7355
18 8 16 -10.9684 0.6176
18 8 18 17.8265 0.0535
18 8 20 -18.1539 -0.1461
18 8 22 -3.5662 -0.1979
18 8 24 -0.5324 0.5452
18 8 26 -13.2981 0.5668
18 8 28 0.9974 0.7979
18 8 30 -34.6615 0.9083
18 8 32 -13.1355 0.6103
18 8 34 -14.5622 -0.2053
18 8 36 -5.5916 -0.2751
18 8 38 4.0884 -0.4177
18 8 40 -4.1917 0.5511
18 8 42 16.4169 0.8350
18 8 44 -15.5273 0.1934
18 9 1 -7.9886 0.2749
18 9 3 3.2371 2.3726
18 9 5 -4.5668 0.1343
18 9 7 23.7824 -0.9181
18 9 9 -23.7636 0.6886
18 9 11 -15.1612 0.2904
18 9 13 -18.6849 -1.1776
18 9 15 -6.0352 -0.1838
18 9 17 -3.3481 1.0588
18 9 19 16.8276 0.7940
18 9 21 23.9606 1.2296
18 9 23 7.0196 -1.9174
18 9 25 9.2889 -0.2356
18 9 27 12.5296 1.4427
18 9 29 -0.2793 -2.3768
18 9 31 5.6131 0.5162
18 9 33 8.7307 2.1396
18 9 35 -16.3179 -0.6141
18 9 37 10.1787 -0.3751
18 9 39 5.2851 -1.9531
18 9 41 42.1643 0.0344
18 9 43 -8.0687 -0.5672
18 9 45 -14.6616 0.3679
18 10 0 25.2359 -0.9947
18 10 2 37.6558 -0.2794
18 10 4 2.4783 0.8326
18 10 6 3.6625 0.1847
18 10 8 -24.3480 0.2894
18 10 10 48.5389 -0.6632
18 10 12 -38.5974 -0.2835
18 10 14 11.5139 0.9277
18 10 16 3.4610 -0.4896
18 10 18 -21.7055 0.4851
18 10 20 -4.3706 1.1784
18 10 22 14.9863 -0.4091
18 10 24 28.1908 0.1553
18 10 26 -0.2137 0.5092
18 10 28 7.1516 -1.0658
18 10 30 5.9374 0.9329
18 10 32 5.5365 -0.1388
18 10 34 -9.3591 -0.2976
18 10 36 11.7257 1.9403
18 10 38 25.3648 -0.1854
18 10 40 7.0957 -1.0107
18 10 42 4.8671 0.7643
18 10 44 -12.4561 -0.2572
18 11 1 8.3448 0.4083
18 11 3 1.8725 1.3591
18 11 5 51.3680 0.1439
18 11 7 -28.9958 -0.7802
18 11 9 16.5282 0.4098
18 11 11 -37.3535 0.2154
18 11 13 35.0981 -2.6460
18 11 15 9.0163 -0.1679
18 11 17 17.3538 2.0109
18 11 19 5.8134 0.6981
18 11 21 -35.4188 -0.1723
18 11 23 -9.7033 -2.9063
18 11 25 -3.1480 -0.6423
18 11 27 4.4230 1.5737
18 11 29 -2.1212 -1.9392
18 11 31 -14.4675 1.0760
18 11 33 3.5202 2.5096
18 11 35 35.0536 0.8559
18 11 37 18.4968 -0.9899
18 11 39 -29.9720 -1.3510
18 11 41 14.7346 0.1093
18 11 43 16.7257 -0.3934
18 12 0 15.9841 -0.9403
18 12 2 -22.0644 -0.5308
18 12 4 14.0221 1.0282
18 12 6 -17.9016 -0.4584
18 12 8 -10.3815 0.4510
18 12 10 -43.5863 -0.0273
18 12 12 -29.1095 0.1272
18 12 14 6.1111 -1.0935
18 12 16 2.3492 -1.6142
18 12 18 32.9088 -0.4412
18 12 20 6.8484 2.7748
18 12 22 6.0686 -0.1116
18 12 24 -16.6716 -0.2556
18 12 26 -15.6865 0.0227
18 12 28 -1.2187 -0.8872
18 12 30 2.4874 -0.3540
18 12 32 -19.3309 -1.1315
18 12 34 46.0279 -0.6088
18 12 36 3.4979 2.6600
18 12 38 -18.1816 -0.6963
18 12 40 0.5108 -0.4801
18 12 42 -0.1431 -1.0312
18 13 1 -33.5911 -0.0686
18 13 3 -6.8497 -0.0783
18 13 5 -15.4463 -0.2164
18 13 7 -2.3803 -0.3811
18 13 9 1.8530 0.9885
18 13 11 42.1004 -0.3193
18 13 13 -4.4131 -0.6190
18 13 15 -13.5265 -0.2919
18 13 17 -34.9270 1.0527
18 13 19 -24.8576 0.9235
18 13 21 -12.3646 -0.1184
18 13 23 6.5376 -1.5041
18 13 25 13.7307 -0.1212
18 13 27 -4.2561 -0.5243
18 13 29 11.3414 0.0946
18 13 31 11.0225 -0.5132
18 13 33 -9.5745 1.0655
18 13 35 -25.2917 0.9847
18 13 37 -25.0903 -0.5603
18 13 39 13.2334 0.4678
18 13 41 -44.3826 0.2075
18 14 0 0.8817 0.6751
18 14 2 19.8324 -0.2944
18 14 4 2.0145 0.1403
18 14 6 -14.0979 0.2531
18 14 8 -17.7404 0.3798
18 14 10 -22.4501 0.5119
18 14 12 30.9790 -0.9573
18 14 14 -0.2905 -0.8966
18 14 16 13.7831 -0.1466
18 14 18 -55.2443 0.4799
18 14 20 8.6591 1.1173
18 14 22 -16.9507 0.8874
18 14 24 4.6448 -0.2635
18 14 26 12.5423 -0.3191
18 14 28 -8.1417 -1.2478
18 14 30 1.2035 -0.2554
18 14 32 -17.8877 -0.5217
18 14 34 23.3949 0.7807
18 14 36 17.3867 -0.5352
18 14 38 -5.1810 0.9652
18 14 40 15.9092 2.0000
18 15 1 7.2561 -0.5569
18 15 3 7.4011 -0.8142
18 15 5 39.2382 -0.5569
18 15 7 -22.2464 0.0095
18 15 9 -13.5556 -0.5792
18 15 11 -8.1469 -0.3795
18 15 13 -31.9279 0.9413
18 15 15 -17.3397 0.4538
18 15 17 -1.7507 -1.1168
18 15 19 10.9180 0.3709
18 15 21 10.8726 -0.6518
18 15 23 18.2985 0.5461
18 15 25 -8.1568 -0.3615
18 15 27 -14.7746 -0.7734
18 15 29 -4.0242 0.8522
18 15 31 3.8377 0.4297
18 15 33 22.9344 -0.9809
18 15 35 30.1836 0.7930
18 15 37 -46.9176 0.1730
18 15 39 -5.7258 1.7649
18 16 0 -12.2377 0.1558
18 16 2 19.2732 0.1806
18 16 4 4.8259 -1.4103
18 16 6 -21.4147 0.4450
18 16 8 6.0480 -0.1085
18 16 10 -11.0920 -0.2958
18 16 12 22.6918 -0.3620
18 16 14 -31.0971 -0.7177
18 16 16 -25.3210 2.9493
18 16 18 28.7026 0.6077
18 16 20 8.8260 -2.6024
18 16 22 -11.7488 0.5168
18 16 24 2.6118 1.4924
18 16 26 25.0080 -0.7911
18 16 28 11.7003 0.7645
18 16 30 28.3782 -0.9290
18 16 32 23.1452 1.5961
18 16 34 -48.8722 0.8899
18 16 36 -17.9133 -4.9234
18 16 38 10.0601 0.7243
18 17 1 -10.7614 -1.3537
18 17 3 7.6363 -1.1675
18 17 5 -63.7604 -0.1217
18 17 7 -0.9259 -0.7748
18 17 9 22.3254 0.7246
18 17 11 -10.3108 0.8423
18 17 13 8.8727 1.2427
18 17 15 8.1722 0.9912
18 17 17 -2.1568 -0.5325
18 17 19 14.9423 -1.1204
18 17 21 29.1741 1.0553
18 17 23 -4.2943 -0.3740
18 17 25 -4.2517 0.3881
18 17 27 6.7066 0.4960
18 17 29 32.4301 0.0421
18 17 31 -7.8866 0.2306
18 17 33 -10.1943 -0.4244
18 17 35 18.5430 -1.8812
18 17 37 26.2220 1.4974
18 18 0 -6.2947 -0.0693
18 18 4 2.6864 -5.7507
18 18 8 47.3003 -0.9771
18 18 12 -27.4722 -1.7199
18 18 16 -19.4649 7.1112
18 18 20 -2.8158 -8.8802
18 18 24 26.7208 2.1876
18 18 28 -13.9260 1.1228
18 18 32 29.6229 2.7388
19 0 1 -6.6951 0.7709
19 0 3 -45.6109 -2.5345
19 0 5 28.2139 1.6480
19 0 7 35.9656 -5.3244
19 0 9 -6.4627 -2.6861
19 0 11 -5.0917 0.8300
19 0 13 -20.4662 -2.4433
19 0 15 -29.7632 1.2352
19 0 17 18.8411 -2.5778
19 0 19 -9.8778 -1.8630
19 0 21 -1.0026 0.0180
19 0 23 2.1033 -4.3499
19 0 25 -13.4646 0.0947
19 0 27 25.4853 -0.8617
19 0 29 52.1899 -0.2661
19 0 31 42.9886 0.4934
19 0 33 -5.3959 -3.4775
19 0 35 12.6678 0.3273
19 0 37 10.8952 -2.0505
19 0 39 9.2325 -2.2672
19 0 41 -36.5199 0.7512
19 0 43 2.3778 -1.5744
19 0 45 23.1248 1.8303
19 1 2 -58.3647 0.4362
19 1 4 -14.4564 0.3906
19 1 6 12.9874 0.4343
19 1 8 34.4252 -0.4612
19 1 10 0.4356 -2.5211
19 1 12 35.3027 -0.1137
19 1 14 14.0405 1.9153
19 1 16 23.4106 -0.0001
19 1 18 -30.5019 1.4866
19 1 20 -12.8789 -0.3840
19 1 22 6.7959 -0.4527
19 1 24 -18.0876 -0.5394
19 1 26 -7.2197 -2.7745
19 1 28 -9.0500 -0.2318
19 1 30 21.8744 1.3398
19 1 32 -1.4313 0.6463
19 1 34 -25.2869 0.8553
19 1 36 -28.1230 0.4528
19 1 38 27.8997 -0.2969
19 1 40 25.3954 -0.3718
19 1 42 -48.3609 -1.4520
19 1 44 -18.3930 -0.4245
19 1 46 13.5137 0.4906
19 2 1 0.4075 1.6809
19 2 3 -17.9449 -0.4725
19 2 5 -20.0165 -0.2462
19 2 7 4.1582 1.4524
19 2 9 -3.3622 1.2342
19 2 11 -8.4105 0.9616
19 2 13 -27.6161 1.5232
19 2 15 -10.1806 -0.0756
19 2 17 -17.8982 0.7150
19 2 19 -14.7344 -0.4647
19 2 21 14.1986 -0.5964
19 2 23 -0.8193 1.1423
19 2 25 9.0057 0.3770
19 2 27 25.6210 0.6891
19 2 29 -6.7058 0.8764
19 2 31 5.2280 0.7782
19 2 33 4.2469 1.3150
19 2 35 16.0936 -0.6847
19 2 37 10.2565 -0.1976
19 2 39 6.6214 0.6245
19 2 41 2.9999 0.2718
19 2 43 -22.7958 -0.2858
19 2 45 -7.7014 1.1629
19 3 2 39.6303 -0.2499
19 3 4 -29.5734 -0.0361
19 3 6 -24.7201 0.0471
19 3 8 -36.4485 0.7672
19 3 10 -11.5453 0.5939
19 3 12 -10.8726 0.3230
19 3 14 -32.0125 -0.6379
19 3 16 -21.3194 -1.1658
19 3 18 35.0304 -0.0383
19 3 20 2.0424 -0.4555
19 3 22 -8.8828 -0.0864
19 3 24 -15.1867 1.1410
19 3 26 -2.7824 0.8163
19 3 28 -13.5868 0.2457
19 3 30 17.4665 -0.5665
19 3 32 38.8588 -0.9319
19 3 34 1.9126 -0.1021
19 3 36 63.6646 -0.4960
19 3 38 -27.1365 0.0605
19 3 40 10.7191 1.1934
19 3 42 6.8528 1.1171
19 3 44 27.6021 0.3539
19 3 46 -31.8815 -0.2370
19 4 1 9.6013 0.5977
19 4 3 8.0860 -1.2842
19 4 5 11.1083 -0.1983
19 4 7 -1.0196 0.3325
19 4 9 -1.4905 -0.1007
19 4 11 20.3066 -0.8273
19 4 13 16.9398 -0.3447
19 4 15 0.1148 -0.2933
19 4 17 -3.4935 1.3422
19 4 19 23.0232 0.6488
19 4 21 -15.2786 0.5754
19 4 23 7.9201 0.7138
19 4 25 -5.1888 -0.1910
19 4 27 -23.3678 -0.8006
19 4 29 -0.4136 -1.0909
19 4 31 7.3464 -0.0642
19 4 33 15.0351 0.8886
19 4 35 -9.8346 0.5967
19 4 37 -17.4587 0.8543
19 4 39 -0.7265 1.3404
19 4 41 4.8080 0.0148
19 4 43 15.5244 -0.9146
19 4 45 -27.0301 -0.5093
19 5 2 -12.7082 0.8202
19 5 4 -6.7578 -0.6053
19 5 6 28.0712 -0.5948
19 5 8 -10.3608 -0.5137
19 5 10 -11.0096 0.7955
19 5 12 -3.1688 0.3618
19 5 14 -0.8246 -0.6847
19 5 16 22.0204 0.2656
19 5 18 -25.6964 0.2230
19 5 20 3.0864 0.4087
19 5 22 28.8402 -0.0561
19 5 24 8.6770 -0.4929
19 5 26 -10.4067 0.6175
19 5 28 31.9208 -0.3056
19 5 30 -1.6559 -0.7670
19 5 32 -14.4553 0.3679
19 5 34 6.6725 0.4198
19 5 36 -44.2887 0.3985
19 5 38 33.6608 -0.1822
19 5 40 -38.1412 -0.3333
19 5 42 14.4076 -0.0142
19 5 44 -4.9408 -0.5286
19 5 46 6.8213 0.5818
19 6 1 4.0779 0.2704
19 6 3 12.4419 0.2034
19 6 5 -2.9009 -0.7497
19 6 7 -26.7866 -0.3096
19 6 9 -21.6573 0.3592
19 6 11 -31.9249 0.2844
19 6 13 10.5885 0.1882
19 6 15 3.2218 1.0560
19 6 17 20.5908 -1.8876
19 6 19 -34.6997 -0.8917
19 6 21 -17.5965 -0.5944
19 6 23 4.0357 -2.3170
19 6 25 7.5462 0.5070
19 6 27 -8.2628 -0.1287
19 6 29 25.1101 0.2771
19 6 31 5.4730 0.6656
19 6 33 4.0568 -1.2522
19 6 35 -5.1685 -0.5069
19 6 37 15.9637 -0.4221
19 6 39 -17.9177 -0.8225
19 6 41 11.9969 0.4491
19 6 43 -20.1890 0.4803
19 6 45 -5.9122 0.9651
19 7 2 -15.9317 0.8124
19 7 4 21.3810 -0.3713
19 7 6 19.4271 -1.2507
19 7 8 -5.5782 -0.0420
19 7 10 2.1261 0.4141
19 7 12 -17.4262 -0.4020
19 7 14 -4.9305 -0.9214
19 7 16 -0.9759 0.5890
19 7 18 -6.3579 -0.6713
19 7 20 4.8525 0.9768
19 7 22 -9.9250 0.5106
19 7 24 12.4764 -0.9453
19 7 26 13.0083 0.8305
19 7 28 -12.2850 -0.3461
19 7 30 9.5259 0.1009
19 7 32 9.8085 0.3035
19 7 34 9.2680 -0.1233
19 7 36 18.7375 -0.1403
19 7 38 38.5328 0.4345
19 7 40 -4.1201 -0.1269
19 7 42 -18.6562 0.7278
19 7 44 -23.8875 0.4497
19 8 1 -13.4777 1.1176
19 8 3 10.2192 1.1978
19 8 5 14.6395 -0.1594
19 8 7 -20.8270 0.3737
19 8 9 -4.4733 0.4004
19 8 11 2.3834 -0.3063
19 8 13 14.8423 0.0537
19 8 15 2.5680 0.5488
19 8 17 10.3641 -0.0279
19 8 19 2.1957 0.6809
19 8 21 16.4633 0.1890
19 8 23 7.5905 0.0883
19 8 25 1.0180 0.7636
19 8 27 13.4163 0.3035
19 8 29 25.3843 0.1625
19 8 31 -10.7160 0.7720
19 8 33 1.7793 -0.6840
19 8 35 5.4184 -0.0291
19 8 37 23.8328 0.2313
19 8 39 -20.1498 -0.1017
19 8 41 -24.7817 0.1142
19 8 43 13.6626 0.5299
19 9 2 -3.8603 0.1450
19 9 4 -17.4657 0.5404
19 9 6 7.9836 -0.4498
19 9 8 -7.2807 0.0777
19 9 10 -24.4195 0.4977
19 9 12 -7.6199 -0.3000
19 9 14 16.8673 0.3022
19 9 16 -17.4424 -0.4331
19 9 18 13.7534 -0.0196
19 9 20 -4.7019 0.5611
19 9 22 -20.2386 -0.4519
19 9 24 4.3751 0.4514
19 9 26 7.7648 -0.2052
19 9 28 13.7932 -0.0220
19 9 30 -27.0301 -0.1969
19 9 32 10.9319 -0.3799
19 9 34 6.8325 0.2765
19 9 36 -4.5542 0.0222
19 9 38 -41.3386 0.0309
19 9 40 7.3688 0.0215
19 9 42 16.6406 -0.6336
19 9 44 3.1068 0.1686
19 10 1 -44.8511 0.6836
19 10 3 3.1208 0.7024
19 10 5 -23.6161 -0.0906
19 10 7 -12.9035 0.7316
19 10 9 16.8196 0.2425
19 10 11 52.6254 0.5218
19 10 13 3.4712 0.0168
19 10 15 20.0474 -0.5535
19 10 17 -26.3960 0.1584
19 10 19 16.9974 0.1806
19 10 21 6.5416 0.1590
19 10 23 -1.1489 1.2606
19 10 25 -9.4884 -0.2040
19 10 27 27.2968 -0.2160
19 10 29 -32.0527 -0.1100
19 10 31 28.3304 -0.3467
19 10 33 5.2927 1.0200
19 10 35 5.5155 -0.1411
19 10 37 1.7519 -0.2663
19 10 39 22.3103 -0.3395
19 10 41 -25.6148 -0.3879
19 10 43 0.1939 -0.9093
19 11 2 -10.2763 0.4003
19 11 4 8.4472 0.3046
19 11 6 -21.3464 -0.2102
19 11 8 44.7447 0.0471
19 11 10 34.8694 0.4476
19 11 12 29.9079 0.0662
19 11 14 24.7744 0.5107
19 11 16 3.7276 -0.8283
19 11 18 34.0183 -0.3210
19 11 20 -15.9861 -0.1421
19 11 22 1.9250 -0.3385
19 11 24 -0.4756 0.8199
19 11 26 9.6264 -0.0538
19 11 28 3.3617 0.1767
19 11 30 7.6599 -0.6113
19 11 32 -10.0885 -1.2552
19 11 34 16.2693 0.0379
19 11 36 27.6473 0.5027
19 11 38 -8.2206 0.8424
19 11 40 9.0801 0.0478
19 11 42 -5.4060 -0.1921
19 12 1 -9.5791 0.6796
19 12 3 33.5892 -1.4445
19 12 5 -12.0483 -0.1068
19 12 7 5.4538 0.3452
19 12 9 27.5768 -0.4068
19 12 11 22.0226 0.1674
19 12 13 -11.4264 -0.7853
19 12 15 -23.3955 -0.4318
19 12 17 -1.9155 1.1220
19 12 19 6.1850 -0.7029
19 12 21 -13.0504 -0.1379
19 12 23 -15.7767 0.9904
19 12 25 -21.9241 -0.7432
19 12 27 -23.0678 0.0462
19 12 29 -8.6335 -0.1331
19 12 31 -19.6302 -0.7058
19 12 33 -3.1168 0.2945
19 12 35 1.3349 -0.4220
19 12 37 -30.7403 -0.5778
19 12 39 -15.9913 0.9216
19 12 41 28.8702 -0.0413
19 13 2 17.4054 0.5974
19 13 4 7.6616 0.2081
19 13 6 -22.1561 1.1738
19 13 8 -12.5642 -0.6701
19 13 10 6.7103 -1.3287
19 13 12 52.0973 0.3613
19 13 14 -9.9053 0.6475
19 13 16 7.0844 -0.2545
19 13 18 25.8393 -0.3556
19 13 20 35.6587 -0.4331
19 13 22 -4.1923 0.5714
19 13 24 -19.6015 0.0442
19 13 26 -6.7372 0.2639
19 13 28 -8.2309 0.0552
19 13 30 -4.7374 -0.3080
19 13 32 17.4694 0.0770
19 13 34 -1.2968 -0.9908
19 13 36 12.8908 1.5654
19 13 38 11.0125 0.3133
19 13 40 16.4278 -0.9054
19 14 1 21.5284 0.1313
19 14 3 -14.3217 -0.4093
19 14 5 35.3820 -0.3842
19 14 7 59.0622 -0.0544
19 14 9 9.7811 -0.1252
19 14 11 -27.0058 0.4209
19 14 13 4.1016 0.2434
19 14 15 14.0608 0.1145
19 14 17 -1.5249 0.3464
19 14 19 14.9487 -0.6850
19 14 21 -21.1632 -0.6613
19 14 23 -5.9196 -0.2006
19 14 25 28.3849 -0.7070
19 14 27 -36.1840 0.8658
19 14 29 1.1127 0.8962
19 14 31 -26.9126 -0.1100
19 14 33 1.0070 0.3096
19 14 35 8.5122 -0.8957
19 14 37 -7.9916 -0.3502
19 14 39 2.0473 -0.1061
19 15 2 14.1162 -0.1411
19 15 4 15.1210 0.2361
19 15 6 -6.0376 -0.3189
19 15 8 34.9442 -0.2413
19 15 10 28.1468 -0.2944
19 15 12 -27.4989 0.0804
19 15 14 -14.2888 -0.1174
19 15 16 -1.6973 0.0708
19 15 18 -15.8951 -0.5044
19 15 20 -9.7240 0.3769
19 15 22 -2.9321 0.6382
19 15 24 22.8601 -0.2222
19 15 26 10.5158 0.2861
19 15 28 3.0084 -0.3667
19 15 30 -0.9989 0.0603
19 15 32 -25.8258 -0.0922
19 15 34 -24.0535 -1.0944
19 15 36 -37.0636 -0.1492
19 15 38 8.0717 0.3751
19 16 1 27.2346 0.4620
19 16 3 -61.3275 0.3788
19 16 5 -14.4910 0.2470
19 16 7 6.3442 -0.4651
19 16 9 -20.2674 0.4267
19 16 11 -20.8322 -0.1953
19 16 13 -3.2661 -0.3198
19 16 15 11.7996 0.1538
19 16 17 6.5918 0.2962
19 16 19 -50.6314 0.0422
19 16 21 -2.8507 0.4935
19 16 23 -23.5912 0.0763
19 16 25 46.9502 0.1039
19 16 27 6.7156 0.0234
19 16 29 10.5663 0.0417
19 16 31 21.2102 0.2266
19 16 33 -26.6909 -0.4897
19 16 35 -8.0590 1.2307
19 16 37 -0.8756 0.5254
19 17 2 -4.7932 0.1623
19 17 4 12.1127 0.1778
19 17 6 26.8912 0.3732
19 17 8 -26.4773 -0.4468
19 17 10 6.9651 -0.5595
19 17 12 -14.5876 -0.1004
19 17 14 -25.4025 0.4165
19 17 16 -25.8404 0.6910
19 17 18 -0.1155 0.4430
19 17 20 1.2825 0.5243
19 17 22 -30.4878 -0.1525
19 17 24 -10.9007 -0.8210
19 17 26 -15.0695 -0.5673
19 17 28 -11.8433 -0.1659
19 17 30 26.1807 0.3360
19 17 32 -18.8046 1.1341
19 17 34 -7.2761 0.4518
19 18 1 8.1725 -0.8682
19 18 3 20.9505 -0.2532
19 18 5 -6.4088 -0.0503
19 18 7 -25.2429 0.9769
19 18 9 0.7290 1.1334
19 18 11 -24.7656 0.0722
19 18 13 17.7304 -0.0332
19 18 15 -1.1668 -0.4909
19 18 17 20.8427 -1.5332
19 18 19 15.4387 -0.5980
19 18 21 5.5601 -0.0209
19 18 23 31.4304 0.0133
19 18 25 -24.5050 0.9719
19 18 27 14.6564 -0.9540
19 18 29 -22.0171 -0.2006
19 18 31 -5.1223 0.5204
19 18 33 -0.5902 0.3250
19 19 2 -3.7506 0.4913
19 19 6 16.7723 0.5629
19 19 10 -7.6408 -0.0168
19 19 14 3.4512 -1.3047
19 19 18 -42.7951 0.2420
19 19 22 13.5207 0.7438
19 19 26 22.2070 0.3391
19 19 30 -9.1056 -0.4198
20 0 2 -4.9821 0.8081
20 0 4 -32.3017 -2.5251
20 0 6 -1.6051 -0.7960
20 0 8 -1.5611 0.6347
20 0 10 -4.9670 -4.3116
20 0 12 29.0109 0.5284
20 0 14 -43.6929 -1.7259
20 0 16 -11.3850 -1.0421
20 0 18 11.5620 1.2853
20 0 20 -8.8583 -4.0928
20 0 22 -6.8691 0.7842
20 0 24 2.0688 -1.2354
20 0 26 19.2288 -2.4075
20 0 28 -3.7708 1.4804
20 0 30 16.9979 -3.8050
20 0 32 -27.2356 0.0343
20 0 34 -4.9128 -0.1158
20 0 36 -4.9503 -4.4835
20 0 38 -25.6450 1.9267
20 0 40 30.6454 -1.0459
20 0 42 7.3370 -0.9982
20 0 44 43.2068 -0.2220
20 1 1 36.6706 0.9230
20 1 3 -0.6899 -0.7983
20 1 5 -27.4266 0.4862
20 1 7 56.1013 1.1495
20 1 9 -38.2922 -0.5381
20 1 11 8.7535 0.1819
20 1 13 8.3117 0.1489
20 1 15 29.0509 0.0194
20 1 17 18.3750 -1.2396
20 1 19 2.5854 -1.1399
20 1 21 19.4192 0.1725
20 1 23 -26.8183 0.4133
20 1 25 -27.6120 0.7069
20 1 27 -4.9718 0.5854
20 1 29 6.6764 -0.9138
20 1 31 -5.1291 0.0597
20 1 33 3.5752 -1.0721
20 1 35 0.1444 -0.7153
20 1 37 -39.9964 0.7521
20 1 39 -46.6632 1.0679
20 1 41 56.7681 0.2367
20 1 43 -6.1409 -1.0716
20 1 45 -12.2759 -0.0197
20 2 2 -3.1817 -0.8744
20 2 4 -13.6602 -0.5815
20 2 6 6.8978 -0.0642
20 2 8 -20.9772 0.7983
20 2 10 4.9043 0.1472
20 2 12 -3.7030 0.0544
20 2 14 -2.9279 -0.0914
20 2 16 15.6791 1.0536
20 2 18 33.4699 -0.2372
20 2 20 3.2415 0.5918
20 2 22 4.6297 -0.0737
20 2 24 5.9652 0.6642
20 2 26 -25.7747 0.3482
20 2 28 0.3602 -0.2519
20 2 30 -30.6659 0.3805
20 2 32 6.3093 0.5384
20 2 34 20.1985 -0.1925
20 2 36 5.8188 0.0575
20 2 38 32.8896 -0.2180
20 2 40 -34.0392 0.9016
20 2 42 -5.6320 -0.4194
20 2 44 -49.8985 -0.1045
20 3 1 8.7644 -0.0547
20 3 3 14.2668 -0.4674
20 3 5 6.9866 -0.1387
20 3 7 11.5739 -0.4917
20 3 9 5.3686 -0.5265
20 3 11 23.7379 0.3793
20 3 13 -5.8237 0.8163
20 3 15 11.0894 -0.8693
20 3 17 -8.2794 -0.2540
20 3 19 -20.0633 -0.7010
20 3 21 -6.9063 -0.3049
20 3 23 21.0498 0.6282
20 3 25 -21.6076 0.7392
20 3 27 -2.9699 0.1547
20 3 29 1.9334 0.4325
20 3 31 4.6110 -0.2744
20 3 33 -22.6385 -0.3468
20 3 35 -44.4329 -0.0425
20 3 37 6.4281 0.2690
20 3 39 13.1463 -0.3898
20 3 41 -28.1490 0.2812
20 3 43 8.8858 -0.6810
20 3 45 39.6797 0.2511
20 4 0 14.2667 -2.1216
20 4 2 -15.7179 -0.7733
20 4 4 19.2500 -0.7701
20 4 6 4.0596 0.1056
20 4 8 26.7691 -0.7606
20 4 10 18.3403 0.0571
20 4 12 0.0885 -0.8034
20 4 14 69.6326 -0.0702
20 4 16 7.1757 2.4066
20 4 18 0.1692 0.3276
20 4 20 5.7533 -1.4996
20 4 22 16.6103 0.6198
20 4 24 -10.7466 0.8874
20 4 26 16.7281 -0.2707
20 4 28 -18.4018 -0.3822
20 4 30 -9.1199 -0.2233
20 4 32 1.2607 0.2838
20 4 34 -10.7545 0.2179
20 4 36 -3.8503 -0.8444
20 4 38 -13.8947 0.5014
20 4 40 26.0833 1.8363
20 4 42 13.3996 0.0272
20 4 44 45.5181 0.0567
20 5 1 -25.1331 -1.2497
20 5 3 9.2612 2.1101
20 5 5 31.3524 0.0714
20 5 7 -10.6261 -0.5677
20 5 9 9.1657 0.6832
20 5 11 -16.3144 -0.4720
20 5 13 -1.0366 -0.7919
20 5 15 -8.1757 -0.0583
20 5 17 -4.2360 0.6128
20 5 19 -10.6929 1.0508
20 5 21 -13.8832 -0.2366
20 5 23 7.0782 -1.5964
20 5 25 37.8375 0.2796
20 5 27 -18.0717 0.3213
20 5 29 -2.6792 -0.5104
20 5 31 -0.7833 -0.0896
20 5 33 2.3509 1.3776
20 5 35 6.7102 0.0480
20 5 37 -12.3470 -0.4909
20 5 39 8.7830 -0.5979
20 5 41 -6.2217 -0.0944
20 5 43 0.3616 1.6866
20 6 0 29.2242 -2.8559
20 6 2 2.1758 -0.3113
20 6 4 -2.5259 0.2905
20 6 6 -0.0872 0.5800
20 6 8 7.1879 0.5740
20 6 10 -14.6783 -0.6036
20 6 12 36.9220 0.2779
20 6 14 -37.9972 -0.5439
20 6 16 18.9786 -0.9963
20 6 18 -21.0522 -0.1844
20 6 20 29.2641 -1.4089
20 6 22 -12.6578 0.1857
20 6 24 -7.7956 -0.2011
20 6 26 -26.5674 -0.2394
20 6 28 -21.3157 0.0298
20 6 30 -4.4932 -0.5076
20 6 32 -30.4529 -0.0476
20 6 34 -28.4753 0.4191
20 6 36 -12.0881 0.2698
20 6 38 -24.2829 0.1679
20 6 40 -6.7942 -0.9748
20 6 42 -2.2958 -0.0633
20 6 44 38.9389 0.0472
20 7 1 25.6906 0.1922
20 7 3 -14.4380 -0.2644
20 7 5 1.0987 0.4945
20 7 7 31.0664 -0.4776
20 7 9 19.2301 0.4058
20 7 11 -0.3596 -0.6727
20 7 13 5.4865 -1.6095
20 7 15 -17.0577 0.1589
20 7 17 1.3008 1.3819
20 7 19 -11.2997 1.7066
20 7 21 4.6436 -0.2785
20 7 23 4.4603 -1.0310
20 7 25 5.7025 -0.0339
20 7 27 -10.3449 0.8067
20 7 29 -29.2904 -0.2475
20 7 31 -10.0369 0.3347
20 7 33 2.4839 0.6489
20 7 35 -13.7004 -0.0825
20 7 37 -5.7974 -0.6490
20 7 39 -34.7830 -1.5008
20 7 41 17.0559 -0.5236
20 7 43 8.0363 4.1434
20 8 0 -30.1432 -0.9528
20 8 2 4.7766 -0.1284
20 8 4 2.0335 0.3211
20 8 6 -9.0266 0.9747
20 8 8 7.5723 0.3222
20 8 10 6.1174 -0.0630
20 8 12 -12.4556 -0.6035
20 8 14 -21.0944 -0.7504
20 8 16 -12.9716 -0.8871
20 8 18 2.8652 0.3314
20 8 20 -18.4745 1.1851
20 8 22 13.3921 0.5296
20 8 24 -13.2899 0.5583
20 8 26 5.6765 -0.7525
20 8 28 29.1172 -0.8498
20 8 30 6.7088 -0.4605
20 8 32 0.6902 -0.8451
20 8 34 -35.3905 0.3086
20 8 36 -18.3744 1.1161
20 8 38 -2.4085 0.3820
20 8 40 -17.5096 -0.6827
20 8 42 27.5641 -0.3474
20 9 1 6.7689 -0.0420
20 9 3 -31.1107 -1.6903
20 9 5 -28.1114 0.2009
20 9 7 -4.5437 0.6385
20 9 9 -16.7215 -0.2123
20 9 11 -40.2684 0.5078
20 9 13 16.1799 -0.4927
20 9 15 20.9136 0.3104
20 9 17 -4.9248 0.5336
20 9 19 8.5313 -0.0789
20 9 21 -27.5554 0.0811
20 9 23 -14.3977 0.2034
20 9 25 -16.9898 -0.4884
20 9 27 15.3938 0.1471
20 9 29 17.6797 0.2403
20 9 31 -8.1198 0.4338
20 9 33 3.4655 -0.7219
20 9 35 -15.7786 -0.0560
20 9 37 7.8616 0.1213
20 9 39 18.1272 0.2204
20 9 41 10.8296 -0.0648
20 10 0 2.3839 -0.0350
20 10 2 70.2938 -0.2902
20 10 4 17.9477 0.2625
20 10 6 -1.3501 -0.0646
20 10 8 0.2291 0.2320
20 10 10 12.6962 1.3163
20 10 12 0.0749 -0.5781
20 10 14 13.5415 0.1181
20 10 16 -6.7004 0.5491
20 10 18 29.4296 -0.4756
20 10 20 -3.7975 0.7810
20 10 22 29.7530 -0.0290
20 10 24 34.9018 0.3261
20 10 26 -8.4128 0.6660
20 10 28 29.7765 0.0206
20 10 30 -6.6533 0.6717
20 10 32 29.7973 0.8008
20 10 34 21.4652 0.1689
20 10 36 20.0161 -0.3599
20 10 38 3.3743 -0.4158
20 10 40 1.9669 0.0894
20 11 1 1.1184 -0.6752
20 11 3 3.7979 -0.6479
20 11 5 35.0530 0.3222
20 11 7 -9.9821 0.6873
20 11 9 -2.2098 -0.4183
20 11 11 0.8422 0.0879
20 11 13 -40.9691 0.6768
20 11 15 -8.4316 0.2341
20 11 17 3.9688 -0.8595
20 11 19 6.2869 -0.6294
20 11 21 -11.0858 1.1613
20 11 23 -6.6927 1.1059
20 11 25 -21.3144 -0.5063
20 11 27 2.7769 -0.4364
20 11 29 -13.9743 0.4218
20 11 31 16.2405 0.4388
20 11 33 -15.1846 -1.0585
20 11 35 21.8658 -0.8095
20 11 37 -13.0393 -0.2427
20 11 39 7.6714 -0.6572
20 11 41 6.0555 -0.6192
20 12 0 1.2177 -0.1995
20 12 2 -46.8176 -0.5051
20 12 4 -27.2799 -0.9964
20 12 6 12.9062 -0.3127
20 12 8 -28.8853 -0.4837
20 12 10 7.1072 -0.8392
20 12 12 -12.7524 -0.9264
20 12 14 15.1478 0.9077
20 12 16 -29.7501 2.0202
20 12 18 -31.4205 -0.0030
20 12 20 7.8052 -1.3858
20 12 22 0.4438 -0.3194
20 12 24 -6.6338 0.1836
20 12 26 22.3126 0.0433
20 12 28 -43.4432 -0.6230
20 12 30 17.4448 -0.1547
20 12 32 -14.3082 0.8645
20 12 34 32.5065 -0.7613
20 12 36 -2.3264 -1.1621
20 12 38 5.4222 -0.2055
20 12 40 10.7547 -1.0525
20 13 1 -40.6956 -1.5365
20 13 3 11.8057 -0.9767
20 13 5 -31.2362 -0.0544
20 13 7 -4.2896 0.8453
20 13 9 -38.3224 -0.3629
20 13 11 29.4392 -0.4052
20 13 13 -19.7262 1.2245
20 13 15 -8.8199 0.1391
20 13 17 7.2333 -1.1928
20 13 19 21.4207 -0.8676
20 13 21 -5.7451 0.1345
20 13 23 -11.9983 0.7166
20 13 25 11.0223 -0.4163
20 13 27 -10.9535 -1.1833
20 13 29 1.7772 0.9633
20 13 31 -9.9714 0.5687
20 13 33 -9.0660 -0.0384
20 13 35 -35.9237 0.3343
20 13 37 -18.8599 -0.7295
20 13 39 -6.5313 -1.0018
20 14 0 -18.8659 0.0725
20 14 2 -25.8731 0.2314
20 14 4 -24.7985 -1.0906
20 14 6 -19.6783 -0.3090
20 14 8 -36.4607 -0.3551
20 14 10 -35.4229 -0.4099
20 14 12 -27.5314 0.2369
20 14 14 -8.7546 0.1349
20 14 16 24.4522 1.4130
20 14 18 -18.9499 -0.2159
20 14 20 20.1019 -2.3624
20 14 22 -45.6410 -0.6270
20 14 24 23.7776 0.0652
20 14 26 3.6901 0.5360
20 14 28 3.5735 0.4152
20 14 30 -7.3432 0.4224
20 14 32 -21.9784 0.5931
20 14 34 4.4617 -0.0806
20 14 36 14.0283 2.1099
20 14 38 0.4462 -0.9617
20 15 1 -16.3426 0.0460
20 15 3 4.8989 -0.0050
20 15 5 24.4118 0.1123
20 15 7 -11.9497 0.7119
20 15 9 -5.2389 0.2004
20 15 11 -21.3273 -0.1686
20 15 13 26.6116 0.0819
20 15 15 -22.2763 -0.1237
20 15 17 -12.5961 -0.2367
20 15 19 0.5138 -0.4412
20 15 21 22.8069 0.4883
20 15 23 -6.6530 0.3962
20 15 25 23.7838 0.1110
20 15 27 4.7354 0.4963
20 15 29 -41.2537 0.2009
20 15 31 14.9824 0.0769
20 15 33 17.2986 0.0577
20 15 35 33.0740 -0.0338
20 16 0 10.4462 0.3880
20 16 2 -4.3061 -0.0422
20 16 4 12.7116 -0.9137
20 16 6 25.9329 -0.9304
20 16 8 24.6945 -0.4300
20 16 10 -26.3665 -0.1766
20 16 12 25.8124 0.5354
20 16 14 29.3661 0.5677
20 16 16 -15.8135 1.2730
20 16 18 30.4450 0.5219
20 16 20 -9.0673 -0.4615
20 16 22 -19.8422 -0.1200
20 16 24 -19.6431 0.2730
20 16 26 20.3259 -0.1141
20 16 28 5.0739 0.3549
20 16 30 37.4879 0.1998
20 16 32 18.5206 -0.7251
20 16 34 -16.6721 -0.2667
20 17 1 -21.6866 0.2498
20 17 3 -20.6886 0.8099
20 17 5 -57.5738 -0.2176
20 17 7 -34.7789 0.2580
20 17 9 23.0360 0.1526
20 17 11 -38.0990 0.0543
20 17 13 10.6900 0.1196
20 17 15 -16.0822 -0.2898
20 17 17 -0.7574 0.0505
20 17 19 -8.7734 -0.2025
20 17 21 17.7316 0.2050
20 17 23 1.7733 -0.3792
20 17 25 4.3810 -0.1683
20 17 27 -12.8082 0.2829
20 17 29 44.0983 -0.3843
20 17 31 -26.7011 0.0347
20 17 33 37.8373 -0.0128
20 18 0 -13.7999 0.2676
20 18 2 -26.1148 -0.1902
20 18 4 13.5557 2.0057
20 18 6 1.9674 -0.1811
20 18 8 52.8478 0.1264
20 18 10 19.3908 0.3304
20 18 12 30.1176 0.7344
20 18 14 0.7180 -0.8295
20 18 16 -8.4417 -3.0795
20 18 18 -23.8094 0.3943
20 18 20 -9.7682 2.3095
20 18 22 24.5250 -0.1781
20 18 24 19.3506 -0.8497
20 18 26 -20.1423 -1.0377
20 18 28 0.2380 -0.0959
20 18 30 -6.1339 -0.0427
20 18 32 31.0679 -1.6916
20 19 1 11.6784 0.2884
20 19 3 -13.2632 -0.4686
20 19 5 0.5654 -0.5071
20 19 7 -6.5516 1.0809
20 19 9 -14.2871 -0.7183
20 19 11 25.4170 -0.3397
20 19 13 -10.9616 2.0575
20 19 15 30.2069 -0.5545
20 19 17 12.5389 -0.8681
20 19 19 30.9158 -0.5796
20 19 21 9.1750 -0.4711
20 19 23 1.1545 1.8641
20 19 25 -1.4084 -0.1754
20 19 27 2.7604 -1.0512
20 19 29 1.8713 1.0277
20 20 0 2.6207 0.1980
20 20 4 15.6361 3.8047
20 20 8 13.4049 0.0221
20 20 12 14.4758 0.6336
20 20 16 -2.2515 -5.8596
20 20 20 28.1749 6.1747
20 20 24 -13.3913 -1.8294
20 20 28 3.2625 -0.7198
21 0 3 -13.7804 -4.7348
21 0 5 -16.2148 1.0300
21 0 7 29.9207 -1.7719
21 0 9 -12.0809 0.6319
21 0 11 -5.9769 -0.8704
21 0 13 -12.8547 -3.7003
21 0 15 -11.3184 0.9725
21 0 17 -1.2675 -2.6192
21 0 19 23.7315 -1.0250
21 0 21 -57.2380 0.5116
21 0 23 -13.1369 -2.1930
21 0 25 25.5141 1.6747
21 0 27 -25.4692 -3.1782
21 0 29 15.0590 -2.4414
21 0 31 13.9947 1.0258
21 0 33 32.2502 -2.4965
21 0 35 -6.7100 1.0368
21 0 37 -2.3768 -1.9067
21 0 39 23.0616 -1.3382
21 0 41 -33.5785 0.3103
21 0 43 -14.9337 -6.2819
21 1 4 -8.6316 -0.7889
21 1 6 -24.2123 -1.3813
21 1 8 -20.3706 0.1774
21 1 10 -7.0486 2.7937
21 1 12 6.4790 0.0051
21 1 14 -5.0165 -0.8386
21 1 16 -3.0672 -0.2633
21 1 18 -13.0090 -1.3613
21 1 20 -37.4166 0.5039
21 1 22 28.6061 -0.1271
21 1 24 49.8617 -0.0822
21 1 26 -15.7389 1.9937
21 1 28 -14.7870 -0.0359
21 1 30 -4.6054 -2.2068
21 1 32 -16.8788 0.0169
21 1 34 13.5176 -0.3629
21 1 36 -6.6496 -0.1819
21 1 38 6.2340 0.4997
21 1 40 -20.5019 -0.1015
21 1 42 -29.1559 0.4408
21 1 44 -11.5112 -0.2461
21 2 1 -10.9000 -0.3693
21 2 3 -3.1137 -1.4131
21 2 5 -3.2808 0.1101
21 2 7 13.2926 0.4624
21 2 9 -19.7214 -0.5786
21 2 11 -5.5038 0.2857
21 2 13 -8.6484 1.3579
21 2 15 -12.3308 -0.6324
21 2 17 -20.7905 1.1057
21 2 19 -41.5359 0.1585
21 2 21 10.0006 -0.0248
21 2 23 -11.2190 1.7221
21 2 25 -11.7511 -0.7479
21 2 27 24.3147 1.0165
21 2 29 8.2122 0.9756
21 2 31 -3.5279 -0.2652
21 2 33 5.5464 1.6675
21 2 35 8.2553 0.1515
21 2 37 -3.0858 0.1371
21 2 39 6.3264 -0.3017
21 2 41 -4.5583 -0.7744
21 2 43 -7.6109 -2.6645
21 3 2 -7.0626 0.3826
21 3 4 -26.9164 -0.4910
21 3 6 -27.7029 -0.8310
21 3 8 0.7935 -0.3064
21 3 10 34.5073 -0.2621
21 3 12 -33.6470 -0.6506
21 3 14 -11.4025 1.2226
21 3 16 5.1930 -0.0398
21 3 18 18.8909 0.3032
21 3 20 10.5317 0.6150
21 3 22 -13.2175 -0.4537
21 3 24 -1.1644 -0.1078
21 3 26 13.6045 -0.8654
21 3 28 19.7663 -0.0377
21 3 30 25.0119 0.5809
21 3 32 22.2795 0.1420
21 3 34 15.5787 0.6780
21 3 36 64.9141 -0.0279
21 3 38 -23.3124 0.1316
21 3 40 -27.2040 -1.0950
21 3 42 13.4519 -1.1442
21 4 1 -25.8876 0.0821
21 4 3 -1.0699 -0.4794
21 4 5 21.5350 -0.0527
21 4 7 9.3254 0.5932
21 4 9 -9.2205 0.2491
21 4 11 -1.3063 0.7852
21 4 13 6.7477 0.4404
21 4 15 10.9377 -0.2481
21 4 17 -1.3963 -0.0410
21 4 19 17.5014 -0.9094
21 4 21 6.5103 0.0948
21 4 23 5.6791 0.8610
21 4 25 -31.6657 -0.0768
21 4 27 -7.8779 0.3461
21 4 29 4.3324 0.3130
21 4 31 -0.7780 -0.0813
21 4 33 5.9871 0.7370
21 4 35 -13.2868 -0.5624
21 4 37 2.9858 -0.4581
21 4 39 -24.0508 0.1673
21 4 41 8.6918 -0.2635
21 4 43 7.7334 -2.9786
21 5 2 -6.1442 0.3972
21 5 4 -18.7810 -0.0959
21 5 6 35.7270 0.2439
21 5 8 -4.1068 0.1289
21 5 10 -10.5492 0.2374
21 5 12 4.6295 0.3576
21 5 14 1.6582 0.8778
21 5 16 0.0933 0.1903
21 5 18 17.1544 -0.0514
21 5 20 -3.6847 -1.1059
21 5 22 13.0219 -0.0913
21 5 24 -17.4444 -0.3495
21 5 26 9.9682 0.4736
21 5 28 9.1745 0.0290
21 5 30 21.1250 -0.0090
21 5 32 17.8583 0.2895
21 5 34 -1.8657 -0.2124
21 5 36 -31.1566 0.1055
21 5 38 23.3031 0.3380
21 5 40 6.9732 0.0021
21 5 42 -1.4473 0.4119
21 6 1 5.2105 0.7534
21 6 3 -2.4323 -0.0441
21 6 5 -14.2370 0.0925
21 6 7 -25.2510 0.0482
21 6 9 20.9713 -0.4539
21 6 11 5.0454 0.0688
21 6 13 -2.3429 -2.3102
21 6 15 -33.2729 -0.3864
21 6 17 32.1994 -0.4268
21 6 19 -16.6669 -0.3703
21 6 21 19.8740 0.4707
21 6 23 14.0340 0.2630
21 6 25 9.6579 0.0851
21 6 27 29.5227 -1.0908
21 6 29 -1.4401 -1.1686
21 6 31 28.6116 0.2033
21 6 33 -1.3002 1.0024
21 6 35 28.9509 0.4187
21 6 37 -13.3332 -0.1301
21 6 39 10.6655 -0.1586
21 6 41 15.6925 -0.3166
21 7 2 -37.3588 0.0359
21 7 4 6.5196 0.0087
21 7 6 14.9460 0.0236
21 7 8 -3.7394 -0.1271
21 7 10 -18.9675 0.2280
21 7 12 -1.6386 1.4315
21 7 14 25.8734 -0.6373
21 7 16 -4.6015 0.0166
21 7 18 -36.7772 -0.1302
21 7 20 12.8221 -0.7269
21 7 22 10.2168 0.0351
21 7 24 14.6472 0.7907
21 7 26 15.7409 1.3643
21 7 28 -28.0689 0.1061
21 7 30 7.3497 -0.5108
21 7 32 3.8944 -0.6243
21 7 34 -0.4581 -0.0933
21 7 36 -11.8016 0.5632
21 7 38 25.9354 -0.0776
21 7 40 26.7630 0.3265
21 7 42 -16.8175 1.9814
21 8 1 66.6854 0.4835
21 8 3 -6.6188 -0.3976
21 8 5 56.9765 -0.1257
21 8 7 -13.4057 0.3126
21 8 9 8.5139 0.6209
21 8 11 -34.8270 0.7684
21 8 13 10.7753 -0.4457
21 8 15 -6.8167 -0.3642
21 8 17 -38.0112 -0.0955
21 8 19 6.8094 -0.6954
21 8 21 -10.7019 0.6592
21 8 23 -4.0936 -0.1911
21 8 25 19.8107 -0.1715
21 8 27 -7.2019 0.3193
21 8 29 -5.5391 -0.1210
21 8 31 -11.2183 0.0260
21 8 33 -23.1446 0.4690
21 8 35 4.1307 0.1470
21 8 37 39.6692 -0.1844
21 8 39 -0.4330 0.2085
21 8 41 3.8250 0.2526
21 9 2 25.6299 0.9470
21 9 4 14.5898 0.2301
21 9 6 -19.5661 -0.0981
21 9 8 -12.6991 0.1867
21 9 10 -3.5800 0.0720
21 9 12 12.6033 0.2461
21 9 14 21.6528 -0.0770
21 9 16 -11.7613 -0.2224
21 9 18 5.6799 0.4628
21 9 20 -5.9999 -0.0301
21 9 22 -8.2607 -0.0504
21 9 24 6.4307 0.6683
21 9 26 -7.0018 -0.7256
21 9 28 14.9665 -0.1650
21 9 30 -13.7497 0.4487
21 9 32 2.6162 -0.9202
21 9 34 0.9834 0.1403
21 9 36 1.2258 0.4092
21 9 38 -8.0396 0.1369
21 9 40 4.2968 1.7609
21 10 1 -45.9403 0.6091
21 10 3 17.0281 0.2951
21 10 5 -12.0628 -0.5544
21 10 7 8.1489 0.1064
21 10 9 -2.0729 -0.1688
21 10 11 16.9991 0.1632
21 10 13 -0.0635 0.3233
21 10 15 4.0800 0.4062
21 10 17 -21.1167 0.9383
21 10 19 -12.4324 0.3867
21 10 21 -28.3974 0.0235
21 10 23 -16.6499 0.0602
21 10 25 -4.4870 0.0507
21 10 27 -7.6891 0.2965
21 10 29 -15.9687 0.2585
21 10 31 -11.5008 0.1913
21 10 33 32.5455 -0.2574
21 10 35 -31.1553 -0.1418
21 10 37 2.6073 0.4514
21 10 39 7.1676 0.0627
21 11 2 -10.0803 0.5206
21 11 4 -2.6876 0.3556
21 11 6 -7.8740 -0.0661
21 11 8 42.5407 0.2550
21 11 10 -6.3198 -1.0164
21 11 12 5.2870 0.0111
21 11 14 -4.5906 0.2445
21 11 16 39.0361 -0.5003
21 11 18 27.1465 0.5477
21 11 20 13.6604 0.5763
21 11 22 -39.9367 -0.3165
21 11 24 -5.4312 -0.1253
21 11 26 2.0096 -1.7520
21 11 28 23.4359 -0.0017
21 11 30 -24.5694 1.5230
21 11 32 37.4200 0.4605
21 11 34 -7.3905 0.0215
21 11 36 4.9347 -0.1969
21 11 38 9.7100 -0.2088
21 12 1 13.8670 0.5628
21 12 3 15.1565 0.8052
21 12 5 -30.2277 -0.4388
21 12 7 15.5760 0.0351
21 12 9 13.8474 0.4456
21 12 11 15.9140 -0.4048
21 12 13 -32.1327 0.5987
21 12 15 7.0841 -0.2019
21 12 17 11.1042 -0.2495
21 12 19 31.5325 0.4610
21 12 21 4.3348 -0.2972
21 12 23 16.4700 0.1284
21 12 25 -28.4430 0.4016
21 12 27 -5.0399 -0.8115
21 12 29 5.8039 -0.3876
21 12 31 0.6009 0.0486
21 12 33 -29.1676 -0.5300
21 12 35 -0.1968 -0.2069
21 12 37 -12.1866 0.3166
21 13 2 -7.4575 0.4232
21 13 4 9.0040 -0.2804
21 13 6 12.9839 0.0662
21 13 8 35.3595 -0.0121
21 13 10 17.8367 -0.2147
21 13 12 33.9224 -0.1133
21 13 14 1.7994 -0.2779
21 13 16 -0.1583 -0.0733
21 13 18 39.2228 0.4951
21 13 20 -4.7229 0.0198
21 13 22 4.2587 0.3048
21 13 24 6.3276 -0.9894
21 13 26 10.1453 -1.2308
21 13 28 -8.6672 -0.2906
21 13 30 27.2460 0.3267
21 13 32 -51.0200 0.6395
21 13 34 12.6275 -0.1802
21 13 36 36.4168 0.0124
21 14 1 13.7299 0.6246
21 14 3 24.8746 0.6899
21 14 5 -7.4665 0.1155
21 14 7 12.9669 0.6044
21 14 9 -78.0140 0.4358
21 14 11 0.2398 -0.4010
21 14 13 0.5238 -0.0092
21 14 15 1.7940 -0.2938
21 14 17 22.4424 -0.2552
21 14 19 3.8356 0.6558
21 14 21 25.1342 -0.0618
21 14 23 -38.7654 1.5032
21 14 25 49.6022 0.3745
21 14 27 -33.9250 -0.8775
21 14 29 27.9693 -0.5939
21 14 31 -18.8213 -0.0633
21 14 33 -7.1770 -0.2568
21 14 35 38.6999 0.1772
21 15 2 16.0332 0.0129
21 15 4 7.5205 0.6571
21 15 6 33.6899 0.3332
21 15 8 -40.8039 -0.5214
21 15 10 40.0704 -0.7461
21 15 12 -11.7130 -0.2551
21 15 14 -3.5482 0.2471
21 15 16 -16.4185 0.5623
21 15 18 -24.0558 0.1723
21 15 20 -2.0450 0.3194
21 15 22 17.0421 0.0299
21 15 24 12.1277 -0.2245
21 15 26 -28.5160 -0.0356
21 15 28 -3.3895 0.2108
21 15 30 -12.2135 -0.0247
21 15 32 6.7691 -0.0008
21 15 34 1.8997 0.0892
21 16 1 -4.0131 0.5742
21 16 3 -29.5400 -0.2962
21 16 5 27.8817 0.4613
21 16 7 -15.8089 0.4759
21 16 9 4.5976 0.6042
21 16 11 -19.5396 -0.1311
21 16 13 12.3011 -0.3918
21 16 15 20.5493 -0.0438
21 16 17 -24.7539 0.4746
21 16 19 -2.9383 -0.1083
21 16 21 -24.6488 0.4802
21 16 23 24.6702 0.6718
21 16 25 41.6149 0.3796
21 16 27 16.1371 0.4476
21 16 29 -59.5404 -0.0436
21 16 31 4.2685 0.2935
21 16 33 6.5177 -0.8524
21 17 2 22.5575 0.1805
21 17 4 27.5904 0.2023
21 17 6 -7.0487 -0.5835
21 17 8 -13.6636 -0.3131
21 17 10 -5.7074 0.6925
21 17 12 -4.9524 -0.0360
21 17 14 -31.6719 0.5214
21 17 16 -5.5002 0.2940
21 17 18 -13.4856 0.1130
21 17 20 5.4592 -0.1360
21 17 22 6.7053 0.1368
21 17 24 -27.4787 0.1871
21 17 26 23.7306 0.0815
21 17 28 -7.5649 -0.0806
21 17 30 2.8630 -0.3318
21 18 1 -12.8048 0.4560
21 18 3 -0.8599 0.1407
21 18 5 7.0014 0.0216
21 18 7 -0.2588 -0.6967
21 18 9 11.1469 -0.5194
21 18 11 -31.3229 0.0001
21 18 13 34.3066 -0.7810
21 18 15 -23.7794 0.2552
21 18 17 -0.7214 0.3712
21 18 19 -6.9522 0.0474
21 18 21 21.4227 -0.1200
21 18 23 5.2848 -0.6421
21 18 25 -52.0961 -0.3728
21 18 27 14.9656 1.3330
21 18 29 20.1890 1.3897
21 19 2 36.8270 -0.0650
21 19 4 2.7250 -0.2868
21 19 6 -43.2418 -0.2173
21 19 8 51.3172 -0.4030
21 19 10 16.3536 -0.2718
21 19 12 -2.5438 0.3598
21 19 14 -19.8136 0.3093
21 19 16 3.7826 0.4836
21 19 18 -4.6316 -0.6857
21 19 20 4.9450 0.0105
21 19 22 -9.7262 0.0262
21 19 24 6.2564 -0.2396
21 19 26 16.0786 -0.1586
21 19 28 -1.3956 -0.0824
21 20 1 52.6242 0.2085
21 20 3 -19.5013 1.1441
21 20 5 -3.0638 -0.5064
21 20 7 0.4274 -2.2365
21 20 9 -14.1084 -1.3849
21 20 11 -37.7063 0.4815
21 20 13 25.4371 2.4700
21 20 15 3.4361 0.6282
21 20 17 -14.3918 -0.8157
21 20 19 -4.3011 0.1903
21 20 21 -20.0832 -0.7068
21 20 23 -29.6775 -3.1901
21 20 25 -19.7579 -0.5553
21 21 2 -15.5719 -0.0514
21 21 6 82.9046 0.9940
21 21 10 -0.9860 -0.8900
21 21 14 78.0443 0.2447
21 21 18 7.8604 -0.3632
21 21 22 -12.7855 0.6457
22 0 4 9.1137 -1.9561
22 0 6 4.5358 -3.2466
22 0 8 -19.3899 1.6409
22 0 10 25.4353 -4.1783
22 0 12 21.2690 0.1457
22 0 14 1.7553 -0.3741
22 0 16 0.8728 -3.0538
22 0 18 -10.2198 1.2615
22 0 20 0.6443 -2.5863
22 0 22 33.4348 -0.7367
22 0 24 33.9574 -0.7195
22 0 26 8.6954 -2.5915
22 0 28 10.8744 0.4361
22 0 30 -7.9964 -2.1181
22 0 32 -16.5251 -0.8842
22 0 34 -16.9087 -1.2178
22 0 36 8.4037 -1.3602
22 0 38 -2.9425 0.3644
22 0 40 -7.5079 -4.1814
22 0 42 -8.4829 0.2859
22 1 5 18.1198 -0.1557
22 1 7 47.5965 -2.0455
22 1 9 -12.2464 0.6085
22 1 11 -0.3933 0.3199
22 1 13 -30.4664 -0.7138
22 1 15 -3.5319 -0.8767
22 1 17 13.5971 1.1023
22 1 19 -32.1444 1.6674
22 1 21 -11.2260 -0.9855
22 1 23 -32.6550 -1.1287
22 1 25 -20.4950 -0.2089
22 1 27 -15.7739 -0.3045
22 1 29 -24.3157 -0.1407
22 1 31 4.4412 -0.3978
22 1 33 20.1503 1.3155
22 1 35 -25.9570 1.1916
22 1 37 -5.0173 -0.9505
22 1 39 -16.9267 -0.8572
22 1 41 46.0248 0.1174
22 2 2 -28.6306 0.1396
22 2 4 -21.4780 -0.1428
22 2 6 -11.1009 1.0835
22 2 8 8.7894 0.1368
22 2 10 -9.1327 1.0960
22 2 12 17.3950 -0.1697
22 2 14 9.6845 1.0524
22 2 16 9.8957 2.5289
22 2 18 30.1174 -0.4470
22 2 20 -15.4537 1.9602
22 2 22 -0.7996 0.5048
22 2 24 14.2004 0.8835
22 2 26 -6.1597 1.1897
22 2 28 -12.7560 0.1243
22 2 30 -9.2511 1.5393
22 2 32 -13.8854 0.3088
22 2 34 4.6299 0.2635
22 2 36 -2.3712 1.0165
22 2 38 22.1881 0.2159
22 2 40 -10.7847 0.3081
22 2 42 7.0629 -0.6111
22 3 1 15.8434 -0.3465
22 3 3 1.7669 0.8591
22 3 5 -21.8966 0.2788
22 3 7 -6.7802 0.2694
22 3 9 13.3994 0.1748
22 3 11 41.3952 -0.0181
22 3 13 25.6486 -0.4691
22 3 15 22.1958 -0.5498
22 3 17 12.0116 0.8389
22 3 19 -35.3577 -0.7085
22 3 21 43.8646 1.1944
22 3 23 5.9539 -0.7540
22 3 25 24.7199 0.0624
22 3 27 17.0155 0.3215
22 3 29 -11.4935 -0.9342
22 3 31 -15.3197 0.1222
22 3 33 6.5429 0.1714
22 3 35 -17.3795 -0.8037
22 3 37 -12.9244 0.3104
22 3 39 2.8721 -0.6221
22 3 41 -2.9377 0.7636
22 4 0 21.3976 -3.6236
22 4 2 14.3466 -0.1593
22 4 4 -23.8316 -0.3203
22 4 6 -11.3458 0.7729
22 4 8 3.1639 0.8889
22 4 10 -17.4282 0.7665
22 4 12 6.8374 -0.7664
22 4 14 17.2017 0.3458
22 4 16 15.3354 -0.5073
22 4 18 -2.4968 0.2617
22 4 20 30.0959 0.5504
22 4 22 -14.0713 0.3693
22 4 24 -13.0020 -0.6388
22 4 26 -4.6947 0.2658
22 4 28 16.6184 -0.5880
22 4 30 -13.9209 0.5628
22 4 32 8.9203 -0.3022
22 4 34 7.6602 0.1560
22 4 36 -20.9223 0.2671
22 4 38 -2.5126 0.4329
22 4 40 9.5433 -0.4969
22 5 1 -26.9817 -0.0189
22 5 3 -0.8444 -0.6206
22 5 5 -13.4309 -0.0483
22 5 7 1.9806 0.3971
22 5 9 4.5870 -1.0545
22 5 11 -5.9448 0.1724
22 5 13 -16.0833 -0.0367
22 5 15 23.2238 0.7873
22 5 17 -30.1115 -0.7619
22 5 19 16.3896 -0.1734
22 5 21 3.1903 -0.2820
22 5 23 23.0538 0.7790
22 5 25 21.0335 -0.6733
22 5 27 0.0304 -0.4237
22 5 29 3.1992 -0.0052
22 5 31 -19.3349 0.5546
22 5 33 3.8397 -0.1275
22 5 35 -5.2347 0.4134
22 5 37 -11.8503 0.0950
22 5 39 1.9547 0.2604
22 5 41 2.1825 -0.5213
22 6 0 -6.4273 -1.3364
22 6 2 9.6505 -0.0167
22 6 4 3.6656 -0.4714
22 6 6 10.9081 0.3585
22 6 8 -44.5145 0.0864
22 6 10 1.6299 -1.3307
22 6 12 12.8404 -0.5104
22 6 14 -13.6424 -0.8372
22 6 16 -10.7698 0.5139
22 6 18 -5.2606 -0.1133
22 6 20 -9.0008 -2.0972
22 6 22 12.6663 -0.5603
22 6 24 -32.4185 0.0747
22 6 26 -18.8369 -0.7942
22 6 28 -12.5432 0.5191
22 6 30 4.0037 0.3235
22 6 32 -4.3737 0.2843
22 6 34 7.0739 -0.7172
22 6 36 12.4845 -1.5411
22 6 38 -36.1946 -0.2577
22 6 40 1.9565 0.7970
22 7 1 30.7961 -0.3527
22 7 3 -15.1369 -0.3738
22 7 5 48.5429 -0.1281
22 7 7 5.7615 0.7807
22 7 9 25.4848 -0.5033
22 7 11 -22.6579 -0.7749
22 7 13 -11.1076 1.0261
22 7 15 -27.6099 -0.0353
22 7 17 -34.2308 -1.2925
22 7 19 3.8333 -0.1801
22 7 21 -1.0080 0.5845
22 7 23 -1.9897 1.4967
22 7 25 -37.9264 0.2116
22 7 27 -33.2994 -0.3576
22 7 29 -5.7563 0.3085
22 7 31 -6.5033 -0.2629
22 7 33 -6.7556 -0.5308
22 7 35 -10.1086 -0.5385
22 7 37 19.4951 0.1342
22 7 39 -28.1928 1.5981
22 8 0 -23.0715 -0.8015
22 8 2 -22.4933 -0.6747
22 8 4 10.4130 -0.6401
22 8 6 -19.0572 0.6962
22 8 8 30.1795 -0.3807
22 8 10 22.1535 -0.6418
22 8 12 -37.7883 0.0186
22 8 14 8.0540 0.4749
22 8 16 -12.9818 1.2311
22 8 18 14.2863 0.3377
22 8 20 -1.0502 -1.6236
22 8 22 22.0654 -0.5949
22 8 24 -23.0491 -0.1006
22 8 26 43.4767 0.4976
22 8 28 13.7756 0.4659
22 8 30 9.0549 0.1485
22 8 32 22.2712 0.4607
22 8 34 -35.1735 -0.4281
22 8 36 5.9117 -0.9340
22 8 38 11.1362 0.2639
22 8 40 -4.2540 0.9065
22 9 1 -3.1491 -0.9228
22 9 3 -30.7412 -1.4681
22 9 5 -19.8587 -0.0515
22 9 7 21.0528 1.6546
22 9 9 24.3751 -0.5634
22 9 11 -59.4176 -0.4490
22 9 13 -8.3158 0.9089
22 9 15 23.0219 0.2354
22 9 17 26.1184 -0.1402
22 9 19 -8.9035 -0.5129
22 9 21 -28.2444 -0.0717
22 9 23 -14.4309 0.4485
22 9 25 3.5888 -0.4070
22 9 27 -7.0301 0.0070
22 9 29 -18.6092 0.0228
22 9 31 -0.8603 0.2017
22 9 33 -1.4788 -0.5420
22 9 35 0.8205 -0.0011
22 9 37 -29.5833 0.6340
22 9 39 15.7372 1.5998
22 10 0 -14.2274 -1.0877
22 10 2 11.1762 -0.1789
22 10 4 -24.5534 -0.3510
22 10 6 -2.0522 1.0851
22 10 8 11.6312 -0.2735
22 10 10 6.9103 -0.6038
22 10 12 8.3570 0.4711
22 10 14 2.3751 -0.0781
22 10 16 11.6611 0.5221
22 10 18 -6.9696 -0.0889
22 10 20 36.9733 -0.4236
22 10 22 -34.6633 -0.3356
22 10 24 22.4211 0.1908
22 10 26 -13.2533 -0.0171
22 10 28 -1.8922 0.0574
22 10 30 -5.2938 -0.4468
22 10 32 7.4136 -0.0641
22 10 34 44.1417 -0.5436
22 10 36 -20.4631 -0.3285
22 10 38 -28.7511 0.3434
22 11 1 2.9443 -0.6258
22 11 3 -0.7808 -0.7217
22 11 5 0.1559 0.1590
22 11 7 -1.8560 1.0760
22 11 9 -31.4433 0.3011
22 11 11 30.8523 -0.4830
22 11 13 5.2252 -0.4452
22 11 15 -7.1198 -0.6259
22 11 17 -5.7777 0.1247
22 11 19 22.0372 -0.5938
22 11 21 -2.8565 -0.1743
22 11 23 12.6406 0.0778
22 11 25 -14.3379 0.7019
22 11 27 4.6732 0.0508
22 11 29 -3.5862 0.4030
22 11 31 24.2730 -0.7376
22 11 33 -6.1175 -1.2924
22 11 35 3.7206 0.0666
22 11 37 -12.3519 0.7195
22 12 0 -16.7636 -0.1694
22 12 2 -12.2922 -0.2419
22 12 4 -3.7805 -0.1088
22 12 6 -0.3727 -0.3325
22 12 8 16.7151 -0.4733
22 12 10 -4.1951 1.0994
22 12 12 37.9345 0.3486
22 12 14 -20.1228 -0.6375
22 12 16 -29.3521 -0.2804
22 12 18 -8.3329 0.0211
22 12 20 -3.6015 0.4593
22 12 22 -6.4018 -0.0099
22 12 24 3.6839 -0.9796
22 12 26 13.8532 0.0987
22 12 28 -10.7127 0.0826
22 12 30 5.1138 -0.4417
22 12 32 16.9450 -0.0587
22 12 34 -17.6742 0.5455
22 12 36 -1.9352 -1.2819
22 13 1 -19.0711 0.0426
22 13 3 14.0656 1.1048
22 13 5 -40.1064 0.2963
22 13 7 -19.5996 -0.6179
22 13 9 -51.5878 0.3187
22 13 11 -15.2365 0.2489
22 13 13 -18.8401 -1.1476
22 13 15 -22.5644 0.1626
22 13 17 14.2898 -0.2053
22 13 19 -19.7933 0.3457
22 13 21 -23.4931 -0.5930
22 13 23 -10.9468 -0.2576
22 13 25 9.0156 0.3601
22 13 27 33.8084 0.3624
22 13 29 -3.5549 0.1295
22 13 31 7.5371 -0.4549
22 13 33 -5.3593 -1.2722
22 13 35 -14.7871 0.1046
22 14 0 -19.6257 0.3168
22 14 2 -32.5782 -0.4748
22 14 4 -5.7893 1.1199
22 14 6 48.4018 -0.1576
22 14 8 -8.4863 0.0457
22 14 10 -8.2089 0.3071
22 14 12 -5.1258 0.8422
22 14 14 28.5761 -0.1135
22 14 16 12.2720 -0.6680
22 14 18 -26.3474 -0.4391
22 14 20 -4.9673 1.6690
22 14 22 -6.6288 0.1729
22 14 24 30.9643 -0.1559
22 14 26 -2.0025 -0.0738
22 14 28 -11.8892 0.4458
22 14 30 2.1786 -0.0452
22 14 32 -17.6012 0.9991
22 14 34 3.0518 0.2549
22 15 1 9.8136 -0.0802
22 15 3 -0.4075 0.4869
22 15 5 -8.3944 0.1547
22 15 7 2.5537 -0.7963
22 15 9 39.2007 0.0286
22 15 11 2.0013 0.2099
22 15 13 -4.0054 -0.2173
22 15 15 -25.5631 -0.7639
22 15 17 -4.8658 0.4975
22 15 19 6.3057 0.3947
22 15 21 39.3389 0.4778
22 15 23 -30.7890 0.2935
22 15 25 29.4306 0.5545
22 15 27 -3.9420 -0.1868
22 15 29 -7.2697 -0.1778
22 15 31 -0.8034 -0.1259
22 16 0 37.8063 0.1887
22 16 2 -14.0284 -0.3595
22 16 4 5.7494 1.6385
22 16 6 28.9421 0.1769
22 16 8 4.4151 0.2256
22 16 10 9.9394 0.1399
22 16 12 0.2982 0.1910
22 16 14 49.8008 0.1724
22 16 16 -5.3391 -2.3214
22 16 18 41.4165 0.3570
22 16 20 1.0603 1.3460
22 16 22 -0.9702 0.3158
22 16 24 -27.8939 0.0133
22 16 26 3.5342 -0.1352
22 16 28 -2.0114 -0.3396
22 16 30 19.2461 -0.4233
22 17 1 -3.1928 0.0572
22 17 3 7.8752 -0.5240
22 17 5 3.1648 0.0626
22 17 7 -24.1728 0.2083
22 17 9 14.0650 -0.4775
22 17 11 -4.3459 0.6727
22 17 13 -0.8164 0.4867
22 17 15 -17.6245 -0.0448
22 17 17 4.7263 0.5308
22 17 19 7.2687 -0.1846
22 17 21 1.2581 -0.0021
22 17 23 17.3931 0.5252
22 17 25 17.3849 -0.4388
22 17 27 -37.9466 0.1516
22 17 29 30.4801 -0.4484
22 18 0 0.9942 0.1619
22 18 2 -33.3768 -0.6276
22 18 4 -20.3628 0.8305
22 18 6 -20.6965 -0.4407
22 18 8 -8.5219 0.1187
22 18 10 -21.6315 -0.1295
22 18 12 6.3733 -0.1506
22 18 14 -18.5035 0.7137
22 18 16 12.5737 -0.5771
22 18 18 -55.8224 -0.7329
22 18 20 8.2129 -0.4162
22 18 22 0.9003 -0.3007
22 18 24 -9.0086 0.9570
22 18 26 -19.6672 0.2204
22 19 1 -0.4823 -0.2101
22 19 3 -10.4681 -0.3455
22 19 5 0.5960 0.1824
22 19 7 -39.0623 -0.3182
22 19 9 -31.3569 0.1028
22 19 11 14.6831 -0.3767
22 19 13 -25.2094 -0.2330
22 19 15 21.9102 -0.5722
22 19 17 -2.6537 0.0503
22 19 19 6.7543 0.1611
22 19 21 -12.8580 0.5035
22 19 23 27.0598 -0.7417
22 19 25 -19.7412 0.2497
22 20 0 -16.7541 0.6597
22 20 2 48.0080 -0.3305
22 20 4 28.1199 -0.7464
22 20 6 20.7037 -0.9388
22 20 8 35.6797 -0.6539
22 20 10 -10.3196 0.8914
22 20 12 15.4632 -0.7427
22 20 14 -14.0512 -0.2204
22 20 16 -7.7466 1.5629
22 20 18 37.0036 0.0820
22 20 20 -7.4935 -2.2447
22 20 22 19.0960 -0.2764
22 21 1 -22.8704 -0.2298
22 21 3 -29.4748 2.4732
22 21 5 29.8394 -0.0254
22 21 7 18.2913 -3.0267
22 21 9 -11.8272 1.8851
22 21 11 24.9272 0.7588
22 21 13 41.5066 -1.4769
22 21 15 16.7597 0.5059
22 21 17 -5.2777 0.6007
22 21 19 11.8543 0.9419
22 22 0 35.8101 0.9197
22 22 4 -27.6251 -2.2558
22 22 8 33.5757 0.3060
22 22 12 -32.8633 -0.8080
22 22 16 -10.6213 3.0365
23 0 5 34.4564 0.7245
23 0 7 17.3206 -4.7755
23 0 9 6.0583 -2.1990
23 0 11 3.3607 0.5159
23 0 13 -6.4516 -2.0445
23 0 15 -14.2162 1.2537
23 0 17 0.1412 -2.8415
23 0 19 -12.1989 -1.1968
23 0 21 -25.1975 -0.2787
23 0 23 -3.1085 -4.0069
23 0 25 6.9434 0.4580
23 0 27 -16.0388 -1.0653
23 0 29 -2.1553 -0.2080
23 0 31 4.8037 0.2359
23 0 33 9.2706 -5.3544
23 0 35 10.0109 0.2436
23 0 37 23.8502 -1.3629
23 0 39 -1.0886 -3.6728
23 1 4 -2.3138 -0.5505
23 1 6 29.3218 0.2666
23 1 8 -21.6419 0.0119
23 1 10 34.1112 -1.5528
23 1 12 -28.9678 0.1692
23 1 14 -34.3592 0.1248
23 1 16 7.1983 0.2580
23 1 18 8.3787 0.8492
23 1 20 2.0720 0.0381
23 1 22 20.6398 0.0755
23 1 24 30.8574 -0.2914
23 1 26 -2.9496 -1.0460
23 1 28 -21.6034 0.0484
23 1 30 22.4350 1.1996
23 1 32 -43.1332 0.1131
23 1 34 48.4561 0.0011
23 1 36 8.8318 0.0778
23 1 38 -18.0757 -0.2581
23 1 40 18.3825 -0.5907
23 2 5 19.8313 0.0846
23 2 7 12.4430 0.7255
23 2 9 1.4083 1.0079
23 2 11 14.7824 -0.4318
23 2 13 16.7251 1.4849
23 2 15 -24.6833 -0.2229
23 2 17 -13.5853 1.9608
23 2 19 -0.8782 1.7005
23 2 21 9.6793 0.6658
23 2 23 6.9638 2.5117
23 2 25 -19.2373 0.4981
23 2 27 13.7639 -0.0396
23 2 29 5.6796 -0.3614
23 2 31 -2.6842 0.4116
23 2 33 19.2621 -0.1081
23 2 35 -31.6936 0.4262
23 2 37 -11.5118 1.2216
23 2 39 12.0540 -0.8141
23 3 2 12.4007 0.2787
23 3 4 -26.9956 0.4299
23 3 6 -31.1504 -0.2497
23 3 8 25.1758 -0.1606
23 3 10 16.4391 1.0690
23 3 12 -7.6755 0.2217
23 3 14 2.7805 0.5410
23 3 16 -2.2446 -0.0044
23 3 18 4.4475 0.0018
23 3 20 20.9566 -0.1278
23 3 22 -4.0718 -0.7142
23 3 24 -0.2888 0.0460
23 3 26 19.3778 -0.0487
23 3 28 13.3664 0.2563
23 3 30 5.5081 -0.4746
23 3 32 -1.7397 0.0245
23 3 34 -7.0561 0.1935
23 3 36 16.0973 -0.3997
23 3 38 17.4391 -0.4111
23 3 40 25.7267 -0.9839
23 4 1 -20.8732 0.9316
23 4 3 -17.3182 -2.2362
23 4 5 -7.0750 -0.6516
23 4 7 -5.8684 0.8336
23 4 9 -11.4420 0.7523
23 4 11 -2.1472 0.1041
23 4 13 -4.9371 1.2040
23 4 15 14.2391 -0.5188
23 4 17 -23.0708 0.2862
23 4 19 0.9471 0.4997
23 4 21 12.8925 -0.8283
23 4 23 5.4230 0.4356
23 4 25 0.6344 0.3221
23 4 27 0.8425 0.0572
23 4 29 5.9771 0.4125
23 4 31 4.5027 0.4656
23 4 33 -0.6584 0.3946
23 4 35 -1.4230 -0.0853
23 4 37 -2.5465 0.2010
23 4 39 -8.7213 -2.1496
23 5 2 -22.0504 0.4051
23 5 4 -8.8289 -0.1854
23 5 6 -17.3393 -0.0353
23 5 8 35.6135 0.2399
23 5 10 22.4944 0.5493
23 5 12 -13.0074 -0.3415
23 5 14 6.9645 -0.9421
23 5 16 -3.0749 -1.2122
23 5 18 9.8256 -0.4701
23 5 20 -7.7954 0.4431
23 5 22 -27.6541 0.5086
23 5 24 -16.2956 0.7042
23 5 26 -16.7599 0.4845
23 5 28 9.5785 0.1881
23 5 30 28.6734 -0.3049
23 5 32 30.8429 -0.9033
23 5 34 9.9900 0.0581
23 5 36 -7.9676 -0.2085
23 5 38 28.5805 -0.2554
23 6 1 -5.0040 0.5965
23 6 3 -21.9446 -1.3494
23 6 5 12.1223 -0.3073
23 6 7 16.9543 0.6101
23 6 9 0.2114 0.0567
23 6 11 -7.6790 -0.3490
23 6 13 3.1849 -0.4533
23 6 15 17.0238 0.0012
23 6 17 23.9006 -1.1491
23 6 19 9.4981 -0.2158
23 6 21 25.3844 -0.0761
23 6 23 5.5426 -0.6976
23 6 25 0.5241 0.1300
23 6 27 7.2208 0.0053
23 6 29 -5.0545 -0.0717
23 6 31 3.1525 0.2120
23 6 33 -3.3461 -0.6589
23 6 35 44.1118 -0.0774
23 6 37 -5.2476 -0.2075
23 6 39 18.0427 -0.9909
23 7 2 -4.1793 0.5618
23 7 4 -2.8921 -0.2478
23 7 6 16.4096 -0.3171
23 7 8 -10.3952 0.0640
23 7 10 14.8999 -0.4514
23 7 12 -14.4353 -0.2566
23 7 14 27.1809 0.6234
23 7 16 5.5504 0.6190
23 7 18 -13.1987 0.0211
23 7 20 -2.6175 0.2775
23 7 22 20.0859 0.3551
23 7 24 12.3447 -0.3809
23 7 26 23.6861 -0.4882
23 7 28 -3.2943 0.2220
23 7 30 -4.5388 0.6761
23 7 32 18.1738 0.6140
23 7 34 4.5412 -0.3516
23 7 36 -7.5510 -0.3003
23 7 38 1.5855 -0.7649
23 8 1 22.3116 0.6321
23 8 3 15.5117 1.1779
23 8 5 -7.0740 -0.8076
23 8 7 4.2159 0.5442
23 8 9 7.1507 -0.7184
23 8 11 -33.7963 -0.2270
23 8 13 -15.6533 -0.3350
23 8 15 -57.1086 0.3129
23 8 17 -24.7480 0.0210
23 8 19 -11.8161 -0.1557
23 8 21 -46.4666 -0.1363
23 8 23 -14.5266 -0.2769
23 8 25 16.6874 0.1718
23 8 27 -16.4548 -0.3208
23 8 29 -22.0274 -0.3543
23 8 31 -2.8491 -0.0107
23 8 33 1.4459 0.5711
23 8 35 -23.3947 -0.2631
23 8 37 12.8309 -0.4010
23 9 2 13.2066 -0.7092
23 9 4 19.9251 0.3336
23 9 6 -3.0316 0.0546
23 9 8 -6.8837 0.3140
23 9 10 -34.4808 -0.3637
23 9 12 8.5005 0.2693
23 9 14 5.0041 0.6459
23 9 16 -3.9407 -0.2025
23 9 18 6.3187 -0.2324
23 9 20 -2.2717 -0.1886
23 9 22 3.2068 0.0589
23 9 24 -22.0171 0.3298
23 9 26 -4.0778 0.5459
23 9 28 -9.7071 0.1504
23 9 30 -10.5357 0.3133
23 9 32 -10.3680 0.1766
23 9 34 -22.7628 -0.1677
23 9 36 15.2438 0.3047
23 10 1 27.9776 0.1696
23 10 3 -15.0891 0.5200
23 10 5 -26.1071 -0.1232
23 10 7 8.4471 0.7916
23 10 9 2.9582 -0.3133
23 10 11 6.4310 0.2010
23 10 13 18.1010 -0.3235
23 10 15 11.8813 -0.5060
23 10 17 2.8538 0.0066
23 10 19 -0.1958 -0.2847
23 10 21 23.2173 0.2617
23 10 23 -24.0856 0.2196
23 10 25 17.5367 -0.4360
23 10 27 14.1691 0.1899
23 10 29 -5.3301 -0.2337
23 10 31 -11.5943 -0.2583
23 10 33 -15.0247 1.0670
23 10 35 5.9827 0.5604
23 11 2 -6.5803 0.6978
23 11 4 -3.9536 0.1942
23 11 6 -18.0018 0.1575
23 11 8 7.9637 -0.4251
23 11 10 -2.9202 -0.0039
23 11 12 7.8709 0.3134
23 11 14 -20.3582 0.0323
23 11 16 15.5305 0.5933
23 11 18 -20.0755 0.0376
23 11 20 11.7549 -0.7492
23 11 22 -15.9981 -0.2309
23 11 24 13.9110 0.0003
23 11 26 -7.7402 0.0485
23 11 28 13.6825 -0.0897
23 11 30 2.6586 -0.7769
23 11 32 4.9496 0.5229
23 11 34 -10.0646 -0.2183
23 12 1 18.9738 -0.1704
23 12 3 -7.3666 -0.2059
23 12 5 0.7601 -0.0749
23 12 7 -8.9105 -0.6107
23 12 9 -7.7573 -0.4530
23 12 11 -15.4229 0.4018
23 12 13 -24.0794 -0.0067
23 12 15 30.6404 -0.1641
23 12 17 10.8211 0.3588
23 12 19 32.9622 -0.1102
23 12 21 -6.9373 -0.0255
23 12 23 18.0585 -0.4985
23 12 25 -21.6085 -0.2264
23 12 27 10.6031 0.0229
23 12 29 13.4218 0.3353
23 12 31 -13.1785 -0.6207
23 12 33 -5.0042 1.0507
23 13 2 2.1621 0.3230
23 13 4 -1.9121 0.5481
23 13 6 28.1244 -0.1408
23 13 8 5.6595 -0.4206
23 13 10 31.6361 0.2336
23 13 12 11.0980 0.0956
23 13 14 4.4950 -0.2957
23 13 16 -2.9612 0.0737
23 13 18 16.0020 -0.4652
23 13 20 4.1103 -0.2169
23 13 22 -17.7159 0.0114
23 13 24 -22.1854 -0.3877
23 13 26 -9.2487 0.7628
23 13 28 12.8540 -0.1452
23 13 30 -4.5388 0.3087
23 13 32 -17.4250 0.9173
23 14 1 -5.5522 0.2177
23 14 3 21.4720 0.0502
23 14 5 24.1079 0.3807
23 14 7 1.5047 -1.0194
23 14 9 -32.9751 -0.1251
23 14 11 -12.0219 -0.1407
23 14 13 -19.8467 -0.1135
23 14 15 41.3455 0.1610
23 14 17 40.5901 0.2163
23 14 19 -12.5624 0.8093
23 14 21 11.1637 0.5130
23 14 23 -12.0265 -0.5050
23 14 25 -3.8401 -0.0661
23 14 27 -6.7660 0.0144
23 14 29 -13.7410 -0.7087
23 14 31 15.2019 0.2125
23 15 2 -18.3536 0.3852
23 15 4 7.1246 0.0428
23 15 6 1.5795 -0.8039
23 15 8 0.8675 -0.0405
23 15 10 -13.8089 0.5306
23 15 12 26.3401 0.3790
23 15 14 8.5795 0.0065
23 15 16 0.0934 0.0977
23 15 18 31.4129 0.2691
23 15 20 -0.2922 0.1590
23 15 22 23.8081 -0.1862
23 15 24 -15.2054 -0.3385
23 15 26 6.9758 -0.9948
23 15 28 -19.4863 -0.1874
23 15 30 2.6136 0.6978
23 16 1 -8.1024 0.2098
23 16 3 10.8508 0.4768
23 16 5 29.8831 -0.1117
23 16 7 -26.4192 -1.5112
23 16 9 0.9172 -0.5425
23 16 11 17.7605 0.4772
23 16 13 10.1776 1.1600
23 16 15 0.1300 0.2281
23 16 17 -22.7887 -0.3049
23 16 19 11.4398 0.5567
23 16 21 7.5383 0.3302
23 16 23 8.0711 0.0002
23 16 25 50.2161 0.2559
23 16 27 -5.5749 -1.2130
23 16 29 -8.5553 -0.8138
23 17 2 1.7204 -0.4778
23 17 4 6.8420 0.1674
23 17 6 -9.5332 0.3090
23 17 8 -46.6963 0.2619
23 17 10 -2.0125 -0.4321
23 17 12 -8.6582 0.2474
23 17 14 4.7732 0.2720
23 17 16 28.8081 -0.4881
23 17 18 -44.7474 0.1378
23 17 20 -0.6762 0.0589
23 17 22 -34.4916 0.0698
23 17 24 33.0637 0.2174
23 17 26 6.8599 -0.2832
23 18 1 4.1457 0.4770
23 18 3 11.9462 0.0995
23 18 5 -27.8002 0.2920
23 18 7 24.9871 -0.7696
23 18 9 -7.0834 -0.2347
23 18 11 -10.0907 0.1282
23 18 13 4.2601 0.0432
23 18 15 -26.3479 -0.1828
23 18 17 -7.6975 -0.2098
23 18 19 0.4596 0.0144
23 18 21 -26.7536 0.6082
23 18 23 2.8531 1.5307
23 18 25 -27.1278 -0.2008
23 19 2 50.0045 0.2156
23 19 4 24.4334 -0.2316
23 19 6 -1.2692 0.1751
23 19 8 43.6027 -0.3586
23 19 10 -9.5301 -0.2307
23 19 12 -25.0563 0.1553
23 19 14 0.9250 0.0439
23 19 16 -18.5023 0.2809
23 19 18 14.0520 0.3066
23 19 20 -13.5851 -0.2666
23 19 22 50.0093 -0.3852
23 20 1 0.1310 0.1639
23 20 3 -36.7125 0.0440
23 20 5 -2.1897 0.1906
23 20 7 -6.6089 0.2202
23 20 9 2.4924 1.0074
23 20 11 -19.1585 -0.2757
23 20 13 44.2022 -2.3045
23 20 15 -19.0806 -0.6255
23 20 17 3.4621 1.0290
23 20 19 -35.1201 -0.8644
23 21 2 24.3303 -0.2277
23 21 4 6.1056 0.1874
23 21 6 34.5658 -1.0153
23 21 8 6.2801 -0.1914
23 21 10 21.4275 2.0293
23 21 12 35.5358 -0.0754
23 21 14 27.0366 -0.9344
23 22 1 -1.3677 0.2663
23 22 3 -8.9550 -0.8082
23 22 5 -44.4651 0.6254
23 22 7 -22.1880 2.2096
23 22 9 -17.2329 1.8063
24 0 6 -21.7357 -1.1796
24 0 8 1.0176 1.0030
24 0 10 41.0556 -3.5863
24 0 12 50.6027 0.2786
24 0 14 -4.0911 -2.2643
24 0 16 14.4129 -2.5448
24 0 18 14.7508 0.8490
24 0 20 -20.0297 -3.6220
24 0 22 7.6304 1.2130
24 0 24 -25.2179 -0.7660
24 0 26 -24.4669 -2.5057
24 0 28 31.5992 0.8664
24 0 30 -51.3346 -4.2686
24 0 32 -52.9538 -0.1723
24 0 34 -26.7133 0.0907
24 0 36 -13.3651 -2.9879
24 0 38 30.9501 2.0993
24 1 3 11.0174 -1.5157
24 1 5 -39.1336 0.3503
24 1 7 22.5957 -0.0769
24 1 9 -15.4955 -0.4203
24 1 11 36.8782 -0.6937
24 1 13 -34.8392 0.5951
24 1 15 15.1447 1.2081
24 1 17 1.6147 -0.4782
24 1 19 -32.0285 -0.9945
24 1 21 32.3655 0.9759
24 1 23 -25.5423 0.2825
24 1 25 20.5251 -0.5687
24 1 27 -36.0088 -0.2929
24 1 29 -14.9898 0.4517
24 1 31 -31.6570 0.6700
24 1 33 26.8820 -0.5172
24 1 35 -38.9809 -0.2384
24 1 37 42.2287 0.7315
24 2 4 9.4457 -0.3687
24 2 6 -15.5674 0.8874
24 2 8 15.7600 0.4488
24 2 10 -33.4491 1.0646
24 2 12 4.7969 -0.0308
24 2 14 21.2580 1.5199
24 2 16 33.2206 0.0073
24 2 18 -15.9069 0.0127
24 2 20 7.9472 1.8664
24 2 22 -2.8233 -0.5418
24 2 24 19.5108 0.2841
24 2 26 -16.4223 1.5467
24 2 28 2.5297 -0.3942
24 2 30 9.7857 0.6471
24 2 32 1.0050 -0.1158
24 2 34 -32.4887 -0.4599
24 2 36 -5.3833 0.2844
24 2 38 -6.6843 0.1901
24 3 5 -1.0655 -0.1887
24 3 7 6.3362 -0.0595
24 3 9 22.0495 -1.1287
24 3 11 -0.0854 0.5763
24 3 13 -17.2652 0.2747
24 3 15 24.4719 0.7618
24 3 17 -50.9613 0.5470
24 3 19 29.6602 0.1874
24 3 21 -23.4669 -0.0541
24 3 23 14.6455 -0.6351
24 3 25 36.9343 -1.0616
24 3 27 13.1000 -0.5501
24 3 29 -4.0727 -0.0766
24 3 31 3.5847 0.4971
24 3 33 -10.1588 0.5268
24 3 35 10.9820 0.8949
24 3 37 -25.5263 -0.0528
24 4 0 -30.3798 -2.4683
24 4 2 6.9739 -0.5024
24 4 4 10.1811 0.0132
24 4 6 23.9322 0.9601
24 4 8 -27.8769 -0.5159
24 4 10 -4.0526 -0.0523
24 4 12 -3.1481 0.8986
24 4 14 -12.3446 1.4675
24 4 16 -41.8669 0.8139
24 4 18 0.3216 -0.9637
24 4 20 0.1290 1.2025
24 4 22 11.0366 -1.0286
24 4 24 -28.3380 -0.0455
24 4 26 3.4141 1.4561
24 4 28 -24.7395 0.4565
24 4 30 -1.7295 1.5908
24 4 32 38.8198 0.0293
24 4 34 37.8527 -0.6426
24 4 36 -15.9107 0.8040
24 4 38 -12.5010 -0.2082
24 5 1 2.8774 -1.2481
24 5 3 -27.3947 0.2036
24 5 5 8.4982 0.1399
24 5 7 -12.0371 1.1160
24 5 9 24.9095 0.5251
24 5 11 -4.7358 0.0097
24 5 13 -1.5265 0.3375
24 5 15 8.3166 -1.0204
24 5 17 30.3495 -0.5555
24 5 19 -14.8626 -0.2463
24 5 21 15.0275 0.2173
24 5 23 -7.7737 0.4971
24 5 25 -5.8385 0.4926
24 5 27 -38.0766 0.3706
24 5 29 -12.7901 0.0829
24 5 31 -1.9292 -0.1832
24 5 33 -3.6690 -0.4569
24 5 35 -15.1053 -0.5137
24 5 37 -4.5050 -0.3690
24 6 0 -16.3257 -2.8516
24 6 2 -7.4373 -0.7311
24 6 4 -12.0001 -0.2174
24 6 6 -40.5087 0.7142
24 6 8 -9.8136 -0.0416
24 6 10 -27.6763 -1.1373
24 6 12 -19.6860 0.4115
24 6 14 17.5750 -0.1046
24 6 16 -25.8731 -0.9975
24 6 18 18.0318 0.2740
24 6 20 -2.0757 0.7782
24 6 22 -16.5818 -0.0895
24 6 24 2.8083 -0.4704
24 6 26 11.2185 -0.1330
24 6 28 9.0595 0.4653
24 6 30 0.1882 -0.6628
24 6 32 0.9840 -0.3695
24 6 34 40.4730 -0.3042
24 6 36 14.2143 0.5207
24 7 1 5.4124 -1.4066
24 7 3 19.3929 -0.7161
24 7 5 33.1792 0.0855
24 7 7 12.4330 0.3443
24 7 9 -19.6587 0.4229
24 7 11 -20.9691 -0.0174
24 7 13 4.6106 0.5559
24 7 15 -2.8516 -0.1895
24 7 17 -4.7353 -0.0771
24 7 19 -13.4231 -0.0991
24 7 21 7.1085 -0.6854
24 7 23 5.1678 0.2504
24 7 25 -51.4096 0.4419
24 7 27 33.4207 -0.5075
24 7 29 -11.1677 0.0791
24 7 31 -14.0236 -0.4812
24 7 33 11.4064 0.4171
24 7 35 -16.7059 0.0988
24 8 0 -10.5682 -0.3837
24 8 2 -29.3209 0.4957
24 8 4 -10.3988 0.8961
24 8 6 -12.4927 1.1095
24 8 8 -11.3555 0.3178
24 8 10 29.5017 -0.2183
24 8 12 -23.0219 0.1991
24 8 14 33.2177 -0.4225
24 8 16 26.1584 -1.1527
24 8 18 -22.3633 0.3620
24 8 20 7.8064 -0.2854
24 8 22 22.2189 0.4098
24 8 24 -9.7910 -0.2710
24 8 26 32.1064 -0.4023
24 8 28 -7.6650 -0.0517
24 8 30 18.6367 0.4216
24 8 32 3.8484 -0.2088
24 8 34 -6.7885 0.3303
24 8 36 3.6392 -0.2042
24 9 1 4.0411 0.5632
24 9 3 -9.2138 1.1515
24 9 5 -6.3477 0.2234
24 9 7 14.6911 -0.5347
24 9 9 -19.1513 0.2537
24 9 11 -27.8904 0.3494
24 9 13 -14.2517 -0.9615
24 9 15 -2.5687 -0.3114
24 9 17 1.2545 -0.6433
24 9 19 39.0511 0.5781
24 9 21 26.1561 0.1670
24 9 23 -9.9545 0.2845
24 9 25 33.1931 0.2486
24 9 27 -5.9911 0.7962
24 9 29 -1.0713 -1.3651
24 9 31 29.9181 0.0580
24 9 33 -4.1355 0.8556
24 9 35 2.8177 -0.3084
24 10 0 -15.0306 0.2308
24 10 2 48.3336 -0.4543
24 10 4 7.3993 0.5254
24 10 6 16.7199 0.2240
24 10 8 -2.7975 0.2583
24 10 10 13.5420 0.0554
24 10 12 8.0329 -0.1149
24 10 14 -38.8603 -0.2005
24 10 16 -12.3775 0.3614
24 10 18 -19.0690 -0.0308
24 10 20 7.6719 0.0739
24 10 22 -40.7043 -0.2740
24 10 24 2.2792 -0.0513
24 10 26 -18.2286 0.2115
24 10 28 -12.4889 0.4363
24 10 30 -5.7503 0.1859
24 10 32 -0.4627 0.0383
24 10 34 -16.9678 -0.2436
24 11 1 -6.9336 -0.0415
24 11 3 12.3876 0.8560
24 11 5 -20.1747 0.1198
24 11 7 5.1135 -0.7289
24 11 9 -3.6377 0.0123
24 11 11 -2.9903 0.2710
24 11 13 27.1804 -0.3212
24 11 15 -6.8097 0.0954
24 11 17 -3.1748 0.4579
24 11 19 15.0006 0.1560
24 11 21 5.2172 0.2771
24 11 23 6.8203 -1.1360
24 11 25 7.1038 -0.1528
24 11 27 10.4692 0.2114
24 11 29 13.3308 -1.4312
24 11 31 -7.7953 0.0211
24 11 33 2.6715 1.7569
24 12 0 22.2029 -0.4720
24 12 2 -9.2068 -0.4043
24 12 4 -0.3741 0.5795
24 12 6 31.5233 0.7898
24 12 8 49.2106 0.2575
24 12 10 -19.0553 -0.5363
24 12 12 8.2805 0.0700
24 12 14 -31.9976 -0.1160
24 12 16 -0.4993 -0.5675
24 12 18 16.4701 -0.0717
24 12 20 -14.9005 -0.1115
24 12 22 -10.4175 0.3381
24 12 24 21.2768 -0.0766
24 12 26 7.9041 -0.0077
24 12 28 31.5275 -0.5437
24 12 30 6.8856 0.0176
24 12 32 13.3618 -0.5834
24 13 1 -25.8346 -0.5097
24 13 3 -33.0721 -0.3936
24 13 5 -5.4392 -0.1849
24 13 7 -46.8326 0.3751
24 13 9 4.8662 0.3691
24 13 11 -13.7269 -0.4084
24 13 13 1.6960 -0.4118
24 13 15 9.9259 -0.3644
24 13 17 -20.9173 0.3949
24 13 19 -7.1811 0.6121
24 13 21 -17.4303 -0.1824
24 13 23 11.9366 -0.3585
24 13 25 -7.6880 0.0810
24 13 27 15.8405 -0.0087
24 13 29 12.8771 -0.1857
24 13 31 23.4976 -0.3437
24 14 0 -11.0832 0.1628
24 14 2 -21.6433 -0.1488
24 14 4 29.1999 -0.3993
24 14 6 -6.7953 0.0251
24 14 8 2.0106 0.0572
24 14 10 28.9430 0.4643
24 14 12 39.6016 -0.1864
24 14 14 7.9613 -0.8411
24 14 16 -30.8326 0.1573
24 14 18 -4.3235 0.2364
24 14 20 -18.7342 -0.0243
24 14 22 9.9877 -0.0892
24 14 24 0.7402 0.2176
24 14 26 16.1379 0.0201
24 14 28 -9.7059 -0.2913
24 15 1 39.4543 -0.1008
24 15 3 2.2777 -0.3983
24 15 5 -10.9279 -0.1498
24 15 7 17.9181 0.1184
24 15 9 30.2813 -0.1952
24 15 11 55.2391 -0.3438
24 15 13 -28.7375 -0.0050
24 15 15 -39.8937 0.3112
24 15 17 14.4965 0.5000
24 15 19 -22.2314 -0.1786
24 15 21 40.6318 -0.4032
24 15 23 -6.3787 -0.5152
24 15 25 10.0511 0.0041
24 15 27 -5.2254 -0.0568
24 16 0 -23.6607 0.0966
24 16 2 18.7718 0.0295
24 16 4 30.1077 -0.4312
24 16 6 15.4968 -0.4677
24 16 8 1.4483 -0.1402
24 16 10 32.4262 0.8826
24 16 12 -4.6095 0.0590
24 16 14 -4.3515 0.0231
24 16 16 26.3093 0.5435
24 16 18 3.8654 0.1696
24 16 20 7.3853 0.1167
24 16 22 0.9931 -0.2252
24 16 24 -16.1116 -0.1304
24 16 26 -15.7419 0.0927
24 17 1 17.4250 -0.0271
24 17 3 13.7113 0.4798
24 17 5 18.7523 0.2022
24 17 7 13.7457 -0.7521
24 17 9 18.6338 -0.1067
24 17 11 -13.8282 -0.0712
24 17 13 -31.8315 -0.4564
24 17 15 21.3285 0.1371
24 17 17 -6.9842 0.3535
24 17 19 -15.2727 0.4032
24 17 21 -19.1382 0.1412
24 17 23 20.5998 -0.0433
24 18 0 -20.9952 -0.1573
24 18 2 -19.9044 -0.1908
24 18 4 -19.0904 -0.4444
24 18 6 -6.5952 -0.8090
24 18 8 -33.0665 -0.4585
24 18 10 -36.5051 0.4452
24 18 12 -22.7885 -0.0750
24 18 14 4.5143 -0.3197
24 18 16 4.1024 -0.4679
24 18 18 -24.4810 0.3968
24 18 20 15.4260 0.8637
24 19 1 7.7828 -0.4184
24 19 3 8.7276 0.8903
24 19 5 -32.2058 0.2575
24 19 7 -5.2254 -1.0806
24 19 9 -27.7790 0.1736
24 19 11 -7.9011 0.2124
24 19 13 -10.6240 0.3872
24 19 15 -24.8376 0.1055
24 19 17 2.2307 0.3043
24 20 0 42.8833 -0.3295
24 20 2 -12.3248 0.0453
24 20 4 -19.7825 0.6620
24 20 6 17.1718 -0.2128
24 20 8 -1.2765 -0.2590
24 20 10 -14.0094 0.1005
24 20 12 -36.8663 0.2776
24 20 14 -13.6154 0.7232
24 21 1 -38.1972 0.2469
24 21 3 14.4202 -0.5129
24 21 5 7.8004 -0.0324
24 21 7 -15.5812 0.6047
24 21 9 -4.2855 -0.8680
25 0 7 24.5153 -1.2877
25 0 9 21.0242 -0.5144
25 0 11 34.9745 -0.3918
25 0 13 0.0981 -4.0126
25 0 15 -14.3958 0.5117
25 0 17 -5.9889 -1.8323
25 0 19 11.4365 -1.4687
25 0 21 39.2601 0.5218
25 0 23 4.1103 -1.8773
25 0 25 1.0503 0.5341
25 0 27 5.8886 -3.4750
25 0 29 12.8694 -3.0605
25 0 31 20.5604 0.6703
25 0 33 -30.0335 -0.2488
25 0 35 37.4322 0.7370
25 1 4 53.6460 0.1287
25 1 6 32.8715 -1.1020
25 1 8 7.9224 0.1825
25 1 10 -4.2791 0.7320
25 1 12 0.4724 0.2823
25 1 14 26.7762 0.0998
25 1 16 -17.6548 -0.1119
25 1 18 -6.2085 -0.7719
25 1 20 -2.1188 -0.0826
25 1 22 9.5816 -0.0745
25 1 24 -1.8684 0.3196
25 1 26 -12.2841 0.5641
25 1 28 14.1101 0.0990
25 1 30 42.1440 -0.0514
25 1 32 18.9703 -0.4561
25 1 34 33.0303 -0.3638
25 1 36 -28.2553 -0.0002
25 2 7 6.8279 0.9768
25 2 9 10.3810 0.1991
25 2 11 -27.5033 0.8511
25 2 13 -0.6070 2.8055
25 2 15 10.7860 -0.5278
25 2 17 -7.2596 0.5749
25 2 19 -0.1895 0.3993
25 2 21 3.8089 -0.4738
25 2 23 20.3205 -0.1909
25 2 25 -5.3535 -0.6891
25 2 27 13.5923 1.3823
25 2 29 0.1256 1.0868
25 2 31 11.7848 -0.4048
25 2 33 32.7505 0.7100
25 2 35 -20.9190 -0.1586
25 3 6 -7.5057 0.0246
25 3 8 -1.6329 0.6720
25 3 10 12.6585 -0.0212
25 3 12 13.3027 -0.7600
25 3 14 -20.3723 0.0801
25 3 16 -39.0574 -1.2521
25 3 18 -7.1913 0.3984
25 3 20 10.1330 0.2243
25 3 22 -19.7714 0.2347
25 3 24 -12.1945 0.5499
25 3 26 -5.1678 -0.5989
25 3 28 -1.4634 0.0747
25 3 30 -2.4858 0.5562
25 3 32 21.4699 -0.7610
25 3 34 -22.5831 -0.3256
25 3 36 -15.0135 0.4300
25 4 7 13.7797 0.6955
25 4 9 4.3975 -0.9920
25 4 11 11.4725 -0.1617
25 4 13 1.7004 1.5529
25 4 15 0.6068 -0.2351
25 4 17 -9.1521 0.6952
25 4 19 -16.2593 1.2421
25 4 21 6.8362 0.4433
25 4 23 20.3422 0.4059
25 4 25 1.7371 -0.9118
25 4 27 -15.6125 0.8682
25 4 29 -5.3182 0.6820
25 4 31 -12.1395 -0.7498
25 4 33 8.4326 0.4657
25 4 35 1.8794 0.5329
25 5 2 -40.7144 0.5413
25 5 4 -6.0804 0.0861
25 5 6 -6.7146 -0.0136
25 5 8 13.6272 -0.0625
25 5 10 5.2184 -0.5260
25 5 12 -21.3553 0.0931
25 5 14 -0.8129 0.5633
25 5 16 -7.7751 0.3683
25 5 18 -10.6628 0.6040
25 5 20 3.3367 -0.0788
25 5 22 -4.7933 0.0456
25 5 24 -14.0418 -0.6596
25 5 26 -1.9995 -1.1345
25 5 28 -28.1667 0.2216
25 5 30 8.0064 1.0161
25 5 32 5.7136 0.5694
25 5 34 -8.0416 -0.0396
25 6 1 -2.9209 0.8660
25 6 3 13.9430 0.1586
25 6 5 4.3564 -0.4421
25 6 7 22.2637 -0.2009
25 6 9 -20.4805 -0.5235
25 6 11 5.3135 -0.3553
25 6 13 11.5377 0.0825
25 6 15 10.4625 -0.1438
25 6 17 1.7312 -0.2411
25 6 19 14.1011 0.4575
25 6 21 5.9220 -0.1599
25 6 23 -7.3576 -0.7118
25 6 25 2.4158 -0.1278
25 6 27 -6.7614 -0.0757
25 6 29 -8.1875 -0.2811
25 6 31 -30.4443 -0.2407
25 6 33 -5.9610 -0.8283
25 6 35 5.4222 0.5630
25 7 2 -37.7378 0.6481
25 7 4 -22.7099 0.3597
25 7 6 -4.7940 0.1117
25 7 8 11.0109 -0.6829
25 7 10 10.3461 -0.0873
25 7 12 -7.3179 0.1595
25 7 14 6.6716 -0.8854
25 7 16 25.5270 -0.0891
25 7 18 -13.1374 0.3655
25 7 20 -40.7386 0.5170
25 7 22 -10.8226 0.4606
25 7 24 -23.2441 -0.6293
25 7 26 1.1293 -0.4141
25 7 28 40.0484 -0.2809
25 7 30 -4.2060 -0.8956
25 7 32 7.6324 -0.0235
25 7 34 17.8011 0.4496
25 8 1 -12.8116 0.8581
25 8 3 4.5633 -0.2598
25 8 5 -28.0600 -0.1448
25 8 7 -16.2328 0.5550
25 8 9 11.3552 0.3413
25 8 11 -1.5254 0.3524
25 8 13 -0.5374 -0.2391
25 8 15 -40.6433 -0.1162
25 8 17 7.9065 -0.8181
25 8 19 1.5760 -0.2159
25 8 21 -9.5234 -0.1481
25 8 23 -24.1119 -0.1698
25 8 25 16.4871 0.0444
25 8 27 -6.7611 0.4999
25 8 29 -14.3752 0.6105
25 8 31 3.1691 0.4401
25 8 33 -15.3514 -1.4890
25 9 2 26.8364 0.7240
25 9 4 7.0519 0.4960
25 9 6 5.8018 -1.2177
25 9 8 -6.5612 -0.3174
25 9 10 -13.3588 0.6835
25 9 12 1.7003 0.1215
25 9 14 20.2531 -0.8429
25 9 16 9.0338 0.2461
25 9 18 -12.6104 -0.1101
25 9 20 3.7565 0.6530
25 9 22 -19.7686 -0.1519
25 9 24 26.5407 -0.1854
25 9 26 -7.8537 0.2317
25 9 28 -11.7224 0.0548
25 9 30 -2.6494 -1.8199
25 9 32 -7.7928 -0.2124
25 10 1 51.9119 0.8831
25 10 3 0.4981 0.2236
25 10 5 -24.2450 0.0217
25 10 7 -25.4312 -0.1130
25 10 9 2.5727 0.1131
25 10 11 -2.9246 -0.1673
25 10 13 13.7491 0.0163
25 10 15 27.7126 -0.1878
25 10 17 40.1271 0.2781
25 10 19 37.3340 0.1492
25 10 21 -5.5797 0.1715
25 10 23 -12.7650 0.0618
25 10 25 11.4578 0.3378
25 10 27 41.1962 -0.2875
25 10 29 24.3394 0.1652
25 10 31 11.7143 0.2571
25 11 2 48.2938 0.0772
25 11 4 23.6901 0.3900
25 11 6 12.4141 -0.1993
25 11 8 4.5478 -0.2040
25 11 10 22.4173 0.6938
25 11 12 10.5937 -0.0972
25 11 14 -0.3294 0.0918
25 11 16 -2.4524 -0.6352
25 11 18 -4.0148 -0.0989
25 11 20 -1.1481 0.1616
25 11 22 22.1999 -0.3397
25 11 24 -20.0383 0.2418
25 11 26 -2.8540 2.1151
25 11 28 -6.4589 0.2960
25 11 30 -5.9051 -2.4333
25 12 1 -43.0234 0.2931
25 12 3 -23.0874 -0.2108
25 12 5 3.9638 -0.5649
25 12 7 -7.0964 0.2423
25 12 9 -20.4774 -0.5079
25 12 11 -31.7386 0.2410
25 12 13 -27.3938 -0.1776
25 12 15 10.3173 0.1812
25 12 17 -12.5471 -0.3929
25 12 19 14.5285 -0.1284
25 12 21 -11.0152 -0.2907
25 12 23 7.8734 -0.3707
25 12 25 -28.9167 -0.1824
25 12 27 -2.4434 0.2538
25 12 29 -33.9558 0.6880
25 13 2 -15.4154 0.0313
25 13 4 -53.2663 -0.1425
25 13 6 12.0987 0.5587
25 13 8 3.5777 0.1450
25 13 10 12.8421 -0.2901
25 13 12 16.9436 0.5514
25 13 14 -22.7711 -0.5010
25 13 16 5.8790 0.0402
25 13 18 3.4682 -0.1000
25 13 20 14.8937 -0.7403
25 13 22 5.8583 -0.3476
25 13 24 -49.4031 0.7125
25 13 26 0.3668 2.4455
25 13 28 -17.0704 0.2601
25 14 1 8.7589 0.1188
25 14 3 10.5659 -0.1931
25 14 5 20.1707 -0.2511
25 14 7 11.0391 -0.7824
25 14 9 15.6436 -0.4075
25 14 11 31.9410 0.3616
25 14 13 12.4456 0.4283
25 14 15 22.5239 0.0394
25 14 17 5.0339 0.1501
25 14 19 -47.3434 -0.4797
25 14 21 28.5694 -0.3960
25 14 23 1.5047 -1.3185
25 14 25 9.3700 -0.3172
25 14 27 -27.6189 0.9974
25 15 2 -28.2379 -0.2272
25 15 4 34.6882 0.1052
25 15 6 -65.2709 0.6536
25 15 8 -3.5218 -0.4225
25 15 10 0.9984 -0.2701
25 15 12 -2.1265 -0.2223
25 15 14 38.1784 0.3696
25 15 16 29.9067 0.0112
25 15 18 10.4573 -0.2977
25 15 20 27.1651 -0.7365
25 15 22 -19.7805 -0.0819
25 15 24 18.5191 0.5357
25 16 1 -8.4279 -0.0283
25 16 3 -1.8226 -0.2422
25 16 5 10.5043 0.1934
25 16 7 -13.5556 -0.1528
25 16 9 -3.7926 0.2795
25 16 11 13.4489 0.3309
25 16 13 10.1029 -0.7678
25 16 15 31.7692 0.3039
25 16 17 5.7376 0.0965
25 16 19 9.5896 0.3048
25 16 21 -16.6440 -0.1718
25 16 23 -6.0226 -1.9099
25 17 2 25.8970 0.4243
25 17 4 -25.0829 0.3157
25 17 6 10.9229 -0.4630
25 17 8 -24.0195 0.0355
25 17 10 -10.2226 0.3073
25 17 12 -4.2799 -0.1757
25 17 14 36.1981 0.0504
25 17 16 -38.3580 0.1388
25 17 18 12.0553 -0.1900
25 17 20 -28.3591 0.1437
25 18 1 8.8690 -0.1023
25 18 3 -4.5138 0.7070
25 18 5 -15.2983 0.1544
25 18 7 -8.9994 -0.8733
25 18 9 9.2926 -0.3689
25 18 11 -9.6197 0.0315
25 18 13 -4.8339 0.6735
25 18 15 -3.7837 -0.1215
25 18 17 22.1376 -0.3643
25 19 2 -20.2389 0.0996
25 19 4 41.6017 0.1103
25 19 6 21.0319 -0.2090
25 19 8 15.9926 0.0915
25 19 10 -22.1002 0.1360
25 19 12 6.7214 0.0598
25 19 14 -51.7435 0.2624
25 20 1 3.0187 0.0367
25 20 3 -11.0647 1.1773
25 20 5 -16.5716 0.1299
25 20 7 9.3213 -1.0494
26 0 8 -24.9478 0.9774
26 0 10 4.0838 -3.5271
26 0 12 -13.3669 0.6854
26 0 14 9.4406 -0.1839
26 0 16 -7.6702 -1.1833
26 0 18 -21.3811 0.7561
26 0 20 6.3891 -3.8164
26 0 22 15.5626 -1.4579
26 0 24 -31.6849 -1.0390
26 0 26 -80.1987 -2.3752
26 0 28 38.8193 2.0617
26 0 30 -4.9790 -1.3437
26 0 32 -30.8749 -0.0805
26 0 34 -32.2717 -1.5615
26 1 7 40.8116 -0.5028
26 1 9 -16.8883 -0.2772
26 1 11 -29.4849 0.3617
26 1 13 -19.8708 0.4851
26 1 15 3.5798 -0.9126
26 1 17 47.7904 0.1836
26 1 19 40.4414 0.3651
26 1 21 -32.1602 -0.6587
26 1 23 -0.5676 1.0291
26 1 25 29.6319 0.6352
26 1 27 25.6859 0.4936
26 1 29 22.6835 -0.1542
26 1 31 -2.4127 -0.6814
26 1 33 -1.1203 -1.1088
26 2 6 -3.7734 0.3413
26 2 8 -44.7527 -0.3339
26 2 10 -8.8525 0.9778
26 2 12 13.4027 0.4129
26 2 14 -27.3838 0.3450
26 2 16 -1.1870 1.8824
26 2 18 -9.0825 -0.3022
26 2 20 -7.2806 1.4963
26 2 22 6.1698 0.6190
26 2 24 -42.6611 0.5280
26 2 26 3.9072 -0.5017
26 2 28 -2.9820 -0.2646
26 2 30 5.8112 -0.4220
26 2 32 18.5746 0.0700
26 2 34 20.7549 -0.8285
26 3 7 23.3076 0.4079
26 3 9 -34.8079 0.3034
26 3 11 -48.2579 0.5621
26 3 13 3.5918 0.3698
26 3 15 15.3808 -0.5752
26 3 17 -35.4945 -0.2994
26 3 19 10.0572 -1.6113
26 3 21 -4.1618 -0.0062
26 3 23 20.0838 0.3873
26 3 25 -20.8624 0.7657
26 3 27 -1.0301 0.7594
26 3 29 -0.6689 0.1002
26 3 31 18.4534 -0.1292
26 3 33 -38.0136 -0.5402
26 4 6 13.3607 0.5269
26 4 8 44.6000 0.5529
26 4 10 -10.5872 1.5233
26 4 12 -27.6197 -0.5566
26 4 14 -2.7550 -0.6390
26 4 16 6.7554 0.5419
26 4 18 -16.8576 -0.0870
26 4 20 -10.3920 0.6657
26 4 22 -20.4322 0.8405
26 4 24 26.5489 0.9480
26 4 26 6.0531 0.0534
26 4 28 -23.6090 -0.7625
26 4 30 5.8358 -0.4149
26 4 32 15.2419 0.4732
26 5 7 -27.7001 -0.8599
26 5 9 22.3466 -0.5082
26 5 11 29.0340 0.3260
26 5 13 -11.6261 -0.2055
26 5 15 -27.9069 0.4706
26 5 17 26.9615 0.3146
26 5 19 20.3989 -0.4036
26 5 21 -6.2566 -0.0689
26 5 23 -8.8779 -0.8129
26 5 25 -2.9390 0.3285
26 5 27 -39.9310 0.0831
26 5 29 -7.8864 0.0264
26 5 31 15.7640 -0.0890
26 5 33 12.5043 1.1412
26 6 0 -51.4525 -1.1018
26 6 2 -5.8874 -0.2037
26 6 4 -35.1504 0.4348
26 6 6 26.8700 0.3487
26 6 8 8.7331 0.1488
26 6 10 11.2033 0.0139
26 6 12 25.8637 -0.4828
26 6 14 55.9720 -0.3758
26 6 16 -10.7375 -0.4731
26 6 18 4.2312 0.1486
26 6 20 3.2239 -0.8257
26 6 22 -16.4210 0.6193
26 6 24 15.7241 0.2483
26 6 26 25.6599 -0.1868
26 6 28 -0.0552 -1.0362
26 6 30 -30.4182 -0.6686
26 6 32 11.6683 -0.3181
26 7 1 -22.8086 0.2332
26 7 3 -40.8490 0.5457
26 7 5 -37.5990 -0.1178
26 7 7 -27.9350 -0.4314
26 7 9 6.6722 0.1247
26 7 11 -48.4598 0.3399
26 7 13 -1.2888 -0.4541
26 7 15 18.6415 0.6803
26 7 17 32.3714 -0.0567
26 7 19 -17.4273 0.9345
26 7 21 32.6113 -0.0820
26 7 23 -14.2836 -1.0712
26 7 25 29.3330 -0.6152
26 7 27 50.7233 0.4976
26 7 29 -28.9139 0.3096
26 7 31 6.4938 0.5077
26 8 0 29.6827 -0.5245
26 8 2 -17.5373 -0.9929
26 8 4 6.3990 0.1827
26 8 6 -25.7835 0.6543
26 8 8 18.7443 0.2669
26 8 10 -17.9711 -0.4593
26 8 12 -15.4773 0.0351
26 8 14 7.1188 -0.1037
26 8 16 -6.0523 -0.3123
26 8 18 8.8993 -0.5693
26 8 20 7.0249 -0.1114
26 8 22 7.8183 -0.3769
26 8 24 21.6570 0.3288
26 8 26 -6.7962 0.7565
26 8 28 -4.1821 0.6244
26 8 30 39.1570 -0.6859
26 9 1 -15.6799 -0.9899
26 9 3 24.3874 -1.9163
26 9 5 -13.2440 -0.1105
26 9 7 22.5378 0.8371
26 9 9 -32.6960 0.2458
26 9 11 30.5004 -0.1842
26 9 13 -11.5042 0.3781
26 9 15 11.6396 0.0198
26 9 17 3.3078 0.5796
26 9 19 -3.1252 -0.1622
26 9 21 37.9333 0.2639
26 9 23 21.5249 -0.0603
26 9 25 4.4368 -0.1156
26 9 27 1.7424 0.0081
26 9 29 42.0591 1.0059
26 10 0 -21.7185 -0.5019
26 10 2 30.2984 0.1064
26 10 4 18.0445 0.2378
26 10 6 24.3330 0.4294
26 10 8 -30.3982 -0.1111
26 10 10 10.5093 -0.3324
26 10 12 14.1775 -0.2025
26 10 14 -16.8116 0.2744
26 10 16 -5.9266 -0.5490
26 10 18 9.6286 0.6662
26 10 20 -16.8111 0.8363
26 10 22 8.3631 0.6272
26 10 24 -16.3655 0.2701
26 10 26 2.5304 -0.2945
26 10 28 17.8681 -0.3238
26 11 1 -21.6083 -0.6909
26 11 3 17.4243 -1.0142
26 11 5 34.0785 -0.1602
26 11 7 2.1171 0.8790
26 11 9 2.0507 0.3736
26 11 11 -20.9462 -0.2139
26 11 13 -14.1886 0.2129
26 11 15 -39.7730 0.3818
26 11 17 -38.5682 -0.1570
26 11 19 38.0505 0.0755
26 11 21 -10.8121 0.0156
26 11 23 18.9928 0.0038
26 11 25 -5.2794 -0.7947
26 11 27 3.6081 -1.0300
26 12 0 57.0608 0.3454
26 12 2 8.6722 -0.0551
26 12 4 3.0391 -0.5922
26 12 6 3.5208 -0.5706
26 12 8 4.1316 0.0875
26 12 10 0.0573 -0.2080
26 12 12 -18.8703 -0.1687
26 12 14 -38.2802 0.0558
26 12 16 -19.0088 0.5375
26 12 18 -26.5583 -0.0557
26 12 20 -32.8001 -0.8020
26 12 22 11.1466 -0.2512
26 12 24 4.5065 -0.0189
26 12 26 26.4242 0.3042
26 13 1 0.8665 -0.3243
26 13 3 -6.4920 0.6739
26 13 5 -26.4782 0.1695
26 13 7 -4.5069 -0.2909
26 13 9 -3.8778 -0.0830
26 13 11 16.2701 -0.6765
26 13 13 3.8466 0.2791
26 13 15 43.9197 0.0746
26 13 17 -13.8696 -0.6723
26 13 19 6.9899 0.0627
26 13 21 40.7129 0.0799
26 13 23 -11.3618 0.3593
26 13 25 -14.0590 -0.4315
26 14 0 -52.0548 0.0725
26 14 2 8.9519 0.1027
26 14 4 13.5189 0.0481
26 14 6 -25.0913 -0.2976
26 14 8 -33.6953 -0.3613
26 14 10 16.9703 -0.8412
26 14 12 -25.7222 -0.0251
26 14 14 -46.8548 0.3438
26 14 16 1.3541 0.3819
26 14 18 10.9660 0.3831
26 14 20 29.2762 -0.0180
26 14 22 -27.0978 0.6125
26 15 1 5.8803 -0.0636
26 15 3 -14.2073 0.6948
26 15 5 36.0010 -0.0548
26 15 7 -2.1399 -0.2561
26 15 9 8.8331 0.3445
26 15 11 13.4258 -0.0241
26 15 13 5.6853 -0.0184
26 15 15 -46.1448 0.1390
26 15 17 -5.5420 0.2054
26 15 19 -16.5593 0.7402
26 15 21 -8.2810 0.0795
26 16 0 4.8323 0.2279
26 16 2 5.4049 -0.1456
26 16 4 30.5924 -0.2342
26 16 6 -4.0119 0.1071
26 16 8 48.2605 0.2305
26 16 10 -3.3332 -0.0725
26 16 12 -6.6793 0.3161
26 16 14 -5.9294 -0.5494
26 16 16 31.4936 0.1730
26 16 18 -6.8047 -0.0371
26 17 1 49.4294 -0.0195
26 17 3 -7.0625 0.3253
26 17 5 -25.7957 -0.0553
26 17 7 4.2583 -0.1797
26 17 9 35.5677 0.1164
26 17 11 -23.1111 -0.1197
26 17 13 -33.8457 -0.2169
26 17 15 18.1879 -0.2601
26 18 0 -15.3829 0.0485
26 18 2 -4.2513 -0.1998
26 18 4 27.3776 -0.0027
26 18 6 -3.2620 0.3606
26 18 8 -12.6043 0.0385
26 18 10 16.3820 0.4090
26 18 12 11.3720 0.0481
26 19 1 -44.0314 0.0513
26 19 3 9.6765 -0.2217
26 19 5 -42.2730 -0.1958
27 0 9 0.3772 -0.8892
27 0 11 -55.1309 -0.4814
27 0 13 -11.7576 -1.9146
27 0 15 27.6489 1.0512
27 0 17 8.0165 -3.8005
27 0 19 22.7104 -0.4255
27 0 21 2.0549 0.1500
27 0 23 23.5029 -4.3797
27 0 25 23.4581 1.1848
27 0 27 1.5556 -0.8913
27 0 29 -6.5255 0.0234
27 0 31 10.2576 0.3700
27 1 8 70.0596 -0.0591
27 1 10 -8.6919 -1.5119
27 1 12 -8.7724 -0.3041
27 1 14 11.0711 -0.0189
27 1 16 -27.3613 0.6199
27 1 18 38.8227 0.4681
27 1 20 -45.0336 0.6632
27 1 22 -13.0815 0.1459
27 1 24 47.5597 -0.1030
27 1 26 -14.3457 -0.3290
27 1 28 -21.2389 -0.1951
27 1 30 17.4573 -0.5952
27 2 7 10.8066 0.7246
27 2 9 -3.6383 0.0543
27 2 11 31.0418 -0.2157
27 2 13 -3.2315 0.9167
27 2 15 3.3208 -0.4724
27 2 17 4.6682 1.9244
27 2 19 5.4363 -0.0326
27 2 21 -9.1066 0.2307
27 2 23 28.5438 1.4594
27 2 25 -27.3304 -0.6088
27 2 27 4.3558 0.3236
27 2 29 4.6410 0.3572
27 2 31 -22.2980 -0.2219
27 3 8 -12.4261 -0.2517
27 3 10 -5.6113 -0.0928
27 3 12 21.4926 -0.4055
27 3 14 8.8425 0.9110
27 3 16 -7.5932 0.2029
27 3 18 -29.8132 0.1949
27 3 20 -8.6446 -0.1055
27 3 22 -16.5406 -0.7092
27 3 24 5.5583 -0.2641
27 3 26 16.4876 -0.8781
27 3 28 -44.6040 -0.3516
27 3 30 -8.1306 1.0046
27 4 9 13.5884 0.8029
27 4 11 -5.7450 0.2546
27 4 13 -7.4515 0.2433
27 4 15 6.1399 -0.4251
27 4 17 8.5930 1.3873
27 4 19 -8.8584 -0.6120
27 4 21 49.5177 -0.9274
27 4 23 -11.0292 0.6901
27 4 25 22.7458 -0.3975
27 4 27 -17.0343 0.7542
27 4 29 -6.8604 0.3465
27 4 31 -4.4496 0.4334
27 5 10 2.2463 1.1641
27 5 12 44.2495 -0.1695
27 5 14 -23.7322 -0.5308
27 5 16 19.7270 -0.5657
27 5 18 -3.3188 -0.0471
27 5 20 -14.5739 -0.0926
27 5 22 -7.8074 -0.3586
27 5 24 4.9676 -0.1382
27 5 26 -25.6337 -0.1556
27 5 28 -18.1608 -0.4593
27 5 30 10.4605 1.6928
27 6 1 6.4553 0.0822
27 6 3 3.0908 -0.7317
27 6 5 -45.2426 -0.1020
27 6 7 16.5545 0.2489
27 6 9 -0.4691 0.0637
27 6 11 -21.8649 0.2205
27 6 13 15.9333 -0.3302
27 6 15 7.5916 0.0078
27 6 17 -17.5271 -0.3283
27 6 19 22.1113 -0.6785
27 6 21 -28.8715 -0.2973
27 6 23 0.3534 -0.4087
27 6 25 20.7368 -0.2792
27 6 27 17.9742 0.2318
27 6 29 -22.3679 0.5633
27 7 2 -42.6389 -0.1225
27 7 4 -54.3205 -0.2872
27 7 6 -4.4553 -0.9960
27 7 8 31.6852 0.5435
27 7 10 -6.9577 1.8131
27 7 12 -6.1298 0.3597
27 7 14 45.0229 -0.6067
27 7 16 11.2838 -0.3192
27 7 18 -25.6128 -0.3473
27 7 20 -15.6870 -0.5303
27 7 22 -13.8612 0.2676
27 7 24 -38.9059 -0.0661
27 7 26 -0.0258 -0.1243
27 7 28 41.8478 -0.2842
27 8 1 22.8466 0.3775
27 8 3 18.6733 1.4563
27 8 5 -15.1472 -0.2173
27 8 7 -24.7443 -0.1618
27 8 9 23.1655 -0.5890
27 8 11 20.3805 -0.3033
27 8 13 8.4212 -0.1364
27 8 15 -12.0947 0.1266
27 8 17 21.2033 -0.1167
27 8 19 -25.6899 0.4826
27 8 21 30.1181 0.1879
27 8 23 -18.6104 -0.1938
27 8 25 -32.2918 -0.2990
27 8 27 -4.5742 -0.3817
27 9 2 4.0275 0.1405
27 9 4 -21.4607 0.5139
27 9 6 9.5256 0.4285
27 9 8 -14.2490 0.1060
27 9 10 33.5775 -0.2936
27 9 12 14.2563 0.0391
27 9 14 -0.8998 -0.1348
27 9 16 -0.6030 -0.3493
27 9 18 -2.6199 0.5061
27 9 20 -12.6746 0.3314
27 9 22 3.8851 0.6927
27 9 24 3.8210 0.3006
27 9 26 -6.1428 -2.6670
27 10 1 13.9718 0.2293
27 10 3 10.8592 0.2710
27 10 5 -0.6345 -0.8199
27 10 7 -15.4226 -0.2069
27 10 9 12.9618 -0.2415
27 10 11 35.6507 0.3959
27 10 13 -0.2564 0.5447
27 10 15 -12.2451 0.4785
27 10 17 32.8040 -0.1848
27 10 19 -8.1565 -0.3376
27 10 21 -22.5300 -0.0602
27 10 23 -24.2438 0.2216
27 10 25 2.0089 0.0013
27 11 2 49.9549 0.5163
27 11 4 52.0904 0.1337
27 11 6 -22.5365 0.5242
27 11 8 -5.2946 0.0094
27 11 10 7.6065 -0.6862
27 11 12 -37.8660 0.1820
27 11 14 19.9880 -0.2683
27 11 16 5.5919 -0.1071
27 11 18 -7.8216 0.1774
27 11 20 18.1621 0.2841
27 11 22 -4.5383 1.2276
27 11 24 -24.3318 -0.7334
27 12 1 -66.2689 0.6821
27 12 3 -30.1858 0.2303
27 12 5 15.1910 0.2653
27 12 7 16.3884 -0.0505
27 12 9 -7.7765 0.3599
27 12 11 -23.1901 -0.2584
27 12 13 -4.7143 -0.5638
27 12 15 23.9658 -0.1903
27 12 17 -30.5303 0.2353
27 12 19 15.8477 -0.4302
27 12 21 -20.2406 0.0292
27 12 23 40.7229 1.1430
27 13 2 -24.6719 0.6460
27 13 4 -49.3981 0.5830
27 13 6 23.4042 0.3499
27 13 8 24.0577 -0.6830
27 13 10 -7.7430 -0.8748
27 13 12 17.7413 -0.2722
27 13 14 -16.4727 0.3929
27 13 16 -2.0866 0.0240
27 13 18 -12.2088 -0.4159
27 13 20 -19.0819 0.7794
27 14 1 18.7935 0.9256
27 14 3 7.6374 -0.8204
27 14 5 -18.7829 0.1546
27 14 7 -36.4534 1.4880
27 14 9 -13.0706 1.1047
27 14 11 22.8312 -0.4614
27 14 13 24.6911 -1.2957
27 14 15 -18.5450 -0.2700
27 14 17 -1.7362 0.5515
27 14 19 19.7118 -0.6039
27 15 2 -5.9669 0.2208
27 15 4 9.0639 0.4599
27 15 6 -10.3453 0.0517
27 15 8 5.8018 -0.0099
27 15 10 15.2409 -0.7936
27 15 12 12.1335 -0.1981
27 15 14 3.9615 0.1323
27 15 16 -2.1572 0.0985
27 16 1 -18.6784 1.0806
27 16 3 -11.8038 -1.3450
27 16 5 -8.2361 0.2863
27 16 7 -17.3033 1.5552
27 16 9 -16.0671 0.6543
27 16 11 23.1775 -0.3579
27 16 13 -2.1379 -1.1580
27 17 2 35.3546 -0.3051
27 17 4 6.5333 0.1869
27 17 6 -26.1230 -0.1001
27 17 8 18.5731 -0.2732
28 0 10 -8.8471 -3.7110
28 0 12 40.1712 -0.0336
28 0 14 10.4358 -2.4969
28 0 16 -24.8192 -4.0895
28 0 18 12.4594 0.9722
28 0 20 -8.8067 -1.8909
28 0 22 32.3623 1.1981
28 0 24 -48.6530 -0.7505
28 0 26 -25.5224 -3.1851
28 0 28 -2.1325 -0.5044
28 1 11 52.8438 -0.0374
28 1 13 -20.7155 -0.0016
28 1 15 -40.2802 0.4288
28 1 17 30.1496 0.3668
28 1 19 -18.3904 -0.1560
28 1 21 29.2748 0.3378
28 1 23 -47.3628 -0.1256
28 1 25 -14.9034 0.3155
28 1 27 25.6241 -0.3507
28 1 29 39.8710 -0.3126
28 2 10 19.3136 1.0338
28 2 12 -19.8611 -0.4051
28 2 14 -7.3117 0.8623
28 2 16 1.6933 0.7918
28 2 18 -53.2003 0.0026
28 2 20 -8.7977 -0.4973
28 2 22 -13.1320 0.1730
28 2 24 6.8019 -0.0486
28 2 26 -9.7352 0.5093
28 2 28 -10.0799 -0.2568
28 3 11 4.1054 0.4097
28 3 13 -1.4540 -0.4672
28 3 15 -13.2755 -0.0293
28 3 17 -2.2697 0.7554
28 3 19 -6.2239 0.3343
28 3 21 13.0795 0.3906
28 3 23 37.5499 -0.0364
28 3 25 -45.1366 -0.2402
28 3 27 -5.9997 0.2467
28 4 12 -26.3106 -0.3234
28 4 14 -22.9389 1.0022
28 4 16 -3.4752 1.1603
28 4 18 2.3597 -0.4787
28 4 20 -11.0416 -0.0265
28 4 22 11.6803 0.0133
28 4 24 24.1165 -0.4093
28 4 26 15.0295 -0.2425
28 4 28 33.8928 0.1386
28 5 13 9.1553 -0.4585
28 5 15 13.4283 -0.0098
28 5 17 -19.5411 -0.0937
28 5 19 25.9628 -0.0785
28 5 21 12.2296 0.1732
28 5 23 -11.4899 0.4229
28 5 25 37.7048 0.3562
28 5 27 13.0809 0.6653
28 6 12 5.6851 0.1553
28 6 14 3.3193 -0.0744
28 6 16 21.4313 0.6387
28 6 18 16.5349 -0.4680
28 6 20 5.1467 -0.6704
28 6 22 -42.4593 0.0157
28 6 24 -6.8141 -0.2749
28 6 26 6.0540 -0.9669
28 7 1 -19.4719 -0.9639
28 7 3 -46.5616 -0.4999
28 7 5 -17.4812 -0.1965
28 7 9 27.5631 -0.2563
28 7 11 -37.8238 -0.3389
28 7 13 -13.6248 0.0158
28 7 15 -32.9203 0.0822
28 7 17 46.3220 -0.3259
28 7 19 30.6599 -0.6461
28 7 21 9.0504 -0.2987
28 7 23 20.3183 1.2681
28 7 25 25.5654 1.0352
28 8 2 -41.1291 0.1970
28 8 4 -13.5276 -0.1029
28 8 6 -7.7119 -0.2147
28 8 8 14.5421 -0.3772
28 8 10 -44.7351 -0.0325
28 8 12 34.5599 0.0759
28 8 14 -6.3432 -0.3261
28 8 16 -29.0553 0.5583
28 8 18 17.3539 0.3254
28 8 20 -0.4013 -0.0082
28 8 22 9.9931 0.4147
28 8 24 4.1639 0.5485
28 9 1 -14.3223 0.0904
28 9 3 4.4165 0.7727
28 9 5 26.6329 -0.2292
28 9 7 6.6875 -0.4661
28 9 9 3.2447 -0.1571
28 9 11 39.5295 -0.0420
28 9 13 -55.8034 0.4040
28 9 15 52.8818 0.2220
28 9 17 -3.8853 -0.2484
28 9 19 -34.7726 -0.6392
28 9 21 31.6282 0.1510
28 9 23 12.1554 0.3093
28 10 0 11.8565 -0.2891
28 10 2 -28.1294 -0.3292
28 10 4 -4.7915 -0.1165
28 10 6 -2.7765 0.0301
28 10 8 -6.0315 -0.0869
28 10 10 32.5076 -0.0651
28 10 12 -11.7666 -0.0177
28 10 14 53.3879 0.2992
28 10 16 -7.4756 0.3153
28 10 18 22.5970 -0.0189
28 10 20 -18.2362 -1.1329
28 10 22 16.1963 -0.1742
28 11 1 14.6900 -0.0814
28 11 3 35.7307 0.8803
28 11 5 48.5131 -0.3200
28 11 7 18.5845 -0.1744
28 11 9 -10.3578 0.1832
28 11 11 -10.4507 0.1718
28 11 13 -1.5490 0.5588
28 11 15 -38.3262 0.0048
28 11 17 1.9102 -0.6874
28 11 19 -9.6170 -0.5720
28 11 21 -21.4272 -0.5565
28 12 0 10.8141 -0.4349
28 12 2 1.1220 -0.1685
28 12 4 41.0396 0.4256
28 12 6 -5.7477 -0.6065
28 12 8 -50.6003 -0.1336
28 12 10 27.0593 -0.3924
28 12 12 -30.5762 0.1239
28 12 14 -40.2549 -0.0255
28 12 16 24.9791 -0.3895
28 12 18 -28.3469 0.1994
28 13 1 11.9462 -0.3437
28 13 3 -8.6632 -0.2850
28 13 5 -23.0074 -0.2950
28 13 7 8.8259 0.0647
28 13 9 -3.3847 1.1127
28 13 11 -11.6639 0.0835
28 13 13 -21.5626 0.5585
28 13 15 -13.2360 -0.1992
28 13 17 -34.2596 -0.8101
28 14 0 -39.9745 0.8166
28 14 2 29.3191 -0.0297
28 14 4 -9.4558 -0.3108
28 14 6 -12.8348 -0.5118
28 14 8 22.4093 0.1322
28 14 10 -48.9413 -0.0072
28 14 12 6.3672 -0.0130
28 14 14 -26.8620 0.3365
28 15 1 -10.0152 -0.2189
28 15 3 2.5158 -0.5837
28 15 5 1.2361 -0.2823
28 15 7 -14.7295 -0.1979
28 15 9 -21.2672 0.0137
28 15 11 3.7353 0.1033
28 16 0 25.8639 0.9270
28 16 2 -11.8949 0.2987
28 16 4 21.9745 0.0113
29 0 11 -7.8305 -0.1956
29 0 13 28.4428 -3.8273
29 0 15 -4.5388 0.9521
29 0 17 35.7327 -0.5155
29 0 19 -19.0370 -2.2827
29 0 21 -3.2037 -0.2160
29 0 23 29.8298 -1.8378
29 0 25 -22.7438 0.1040
29 1 12 -60.3606 0.3251
29 1 14 30.4250 0.3343
29 1 16 6.1377 -0.0231
29 1 18 44.8553 0.6231
29 1 20 -23.4461 -0.2455
29 1 22 22.8757 -0.7357
29 1 24 0.7286 -0.3370
29 2 13 5.8666 0.2574
29 2 15 29.8887 0.6371
29 2 17 -6.1582 0.8984
29 2 19 21.6793 -0.2030
29 2 21 6.1691 -0.4138
29 2 23 0.3589 0.1214
29 2 25 -10.4709 1.0032
29 3 14 5.7157 -0.1086
29 3 16 -4.9786 -0.6668
29 3 18 29.0484 -0.1671
29 3 20 -29.6025 -0.4147
29 3 22 10.6714 -0.3602
29 3 24 46.1970 0.1052
29 4 13 -9.0546 0.8686
29 4 15 -19.8219 -0.5116
29 4 17 5.9511 0.1845
29 4 19 9.0461 -0.0782
29 4 21 7.4908 0.2655
29 4 23 5.4029 0.6680
29 5 14 -5.0464 0.1229
29 5 16 37.6594 -0.0491
29 5 18 -19.0416 -0.2827
29 5 20 -33.1923 -0.5402
29 5 22 -20.8000 0.0967
29 5 24 -18.8862 -0.0263
29 6 13 -8.8561 -0.2426
29 6 15 20.5179 0.0776
29 6 17 -3.0321 0.1524
29 6 19 14.4807 -0.0560
29 6 21 -17.7310 -0.2497
29 6 23 -20.6514 -0.3706
29 7 4 -12.1092 0.3768
29 7 12 2.1044 -0.1937
29 7 14 40.8055 -0.1417
29 7 16 2.4592 0.4524
29 7 18 -20.8665 -0.2593
29 7 20 50.0554 0.1630
29 7 22 3.2311 -0.0923
29 8 1 7.3290 0.4547
29 8 3 3.9072 -0.2013
29 8 5 -15.3488 -0.1019
29 8 7 -23.2794 0.7414
29 8 9 22.2658 0.7704
29 8 11 11.6594 -0.0713
29 8 13 -27.0393 -0.2188
29 8 15 -24.6728 -0.0461
29 8 17 6.4172 -0.2721
29 8 19 -36.5134 -0.2567
29 8 21 21.4004 -0.0660
29 9 2 -60.1938 -0.1320
29 9 4 -13.4703 -0.1631
29 9 6 6.4229 -1.2048
29 9 8 -14.1626 0.1276
29 9 10 30.0127 1.3965
29 9 12 -24.0706 0.0523
29 9 14 -14.6203 -0.2133
29 9 16 10.4565 0.4240
29 9 18 1.7853 -0.5584
29 9 20 -28.3752 0.0750
29 10 1 5.8366 0.1746
29 10 3 1.8167 0.8764
29 10 5 21.6069 0.3894
29 10 7 38.0322 0.3550
29 10 9 -0.3472 0.0598
29 10 11 17.8068 0.1340
29 10 13 24.4790 -0.2225
29 10 15 0.3941 -0.1819
29 10 17 0.0701 -0.9482
29 11 2 3.1884 0.1297
29 11 4 -7.4910 0.3855
29 11 6 -20.1329 -1.0363
29 11 8 -12.6779 0.4119
29 11 10 -3.3761 1.9188
29 11 12 -33.3829 0.4027
29 11 14 14.2867 -0.8986
29 11 16 -5.9264 -0.0312
29 12 1 -1.0132 -0.2515
29 12 3 -4.3097 0.5177
29 12 5 34.2423 -0.0627
29 12 7 -24.8167 -1.1706
29 12 9 7.3596 -0.7868
29 12 11 -16.2160 0.4333
29 12 13 1.5162 0.7732
29 13 2 -4.8569 0.7062
29 13 4 19.1141 -0.3947
29 13 6 14.3715 -1.0474
29 13 8 41.9040 0.0003
29 13 10 -19.6998 1.4611
29 14 1 23.4530 -0.5863
29 14 3 -14.7376 1.3253
29 14 5 -17.0241 -0.2087
30 0 16 32.2109 0.3579
30 0 18 -18.3689 0.6370
30 0 20 -19.5955 -5.4519
30 1 15 5.6116 -0.0061
30 1 17 -20.3088 0.8460
30 1 19 -53.4874 -0.0130
30 1 21 23.5996 0.1862
30 2 14 20.9980 0.8001
30 2 16 -9.7418 0.2816
30 2 18 -1.5524 -0.4836
30 2 20 -21.0400 -2.1693
30 3 15 -30.8797 0.0898
30 3 17 -24.6884 0.2445
30 3 19 -5.0023 0.3489
30 3 21 23.2390 -0.3256
30 4 14 -59.8159 0.6098
30 4 16 -50.0052 0.8807
30 4 18 8.0851 -0.1833
30 4 20 19.2531 -2.5188
30 5 13 -10.8286 0.0909
30 5 15 9.2396 -0.2956
30 5 17 -9.4938 0.6950
30 5 19 -6.8987 1.5002
30 6 12 -18.2502 -0.4604
30 6 14 -19.1580 0.2635
30 6 16 41.4479 -0.1409
30 6 18 -7.4465 0.3056
30 7 11 -20.3216 -0.6169
30 7 13 -25.1745 -0.5383
30 7 15 7.5808 -0.4677
30 7 17 16.0249 0.6442
30 8 0 -29.0230 -0.2144
30 8 2 -24.3911 -0.0938
30 8 4 -18.8669 0.5762
30 8 6 -22.2142 1.1453
30 8 8 -8.4300 0.2828
30 8 10 5.3831 -0.4499
30 8 12 5.4112 -0.2225
30 8 14 48.8623 -0.0430
30 8 16 -4.7432 -0.1424
30 9 1 -10.1332 0.5517
30 9 3 4.9653 0.8476
30 9 5 30.7547 0.0745
30 9 7 -26.4298 -0.2100
30 9 9 21.4893 0.2181
30 9 11 -5.2196 -0.6239
30 9 13 -4.3901 -0.9545
30 10 0 18.4142 -0.5646
30 10 2 15.0237 -0.1056
30 10 4 -4.7171 0.2481
30 10 6 26.4507 0.0455
30 10 8 14.1152 0.2832
30 10 10 -9.1471 0.2509
30 10 12 7.5715 0.4670
30 11 1 24.8412 0.1844
30 11 3 21.5474 1.5527
30 11 5 17.3186 0.6607
30 11 7 18.6997 -0.7021
30 11 9 29.3502 0.2386
31 0 15 -17.1052 0.2385
31 1 16 14.3755 -0.2223
31 2 15 25.1700 -0.8551
31 3 14 -10.6230 0.5770
31 4 13 13.3482 -0.1830
31 4 15 -19.1423 0.3848
31 5 12 -7.7347 0.9161
31 5 14 14.9797 0.6385
31 6 11 -6.6254 0.0975
0 0 0 0.0 0.0
;
loop_
  _refln_index_h
  _refln_index_k
  _refln_index_l
  _refln_F_squared_meas
  _refln_F_squared_sigma
 -3 -1 0 0.74 1.55
 5 1 0 -4.96 2.2
 -5 -1 0 -3.12 2.2
 -6 -2 0 11.85 2.88
 7 1 0 1.3 2.75
 7 -1 0 -0.81 2.28
 -7 -1 0 -3.21 2.5
 -7 -3 0 -4.98 3.46
 -8 -4 0 189.13 9.09
 9 1 0 -1.32 2.92
 -9 -3 0 -3.43 3.37
 -9 -5 0 -0.27 3.92
 10 0 0 73.34 4.04
 -10 -4 0 127.11 7.15
 -10 -6 0 97.6 5.72
 11 1 0 -1.49 3.11
 -11 -1 0 -2.31 2.88
 11 -3 0 -3.1 2.83
 -11 -5 0 7.23 3.91
 -11 -7 0 -0.5 4.23
 12 0 0 171.9 7.52
 12 -2 0 78.1 4.77
 -12 -2 0 79.72 5.5
 -12 -4 0 18.77 3.7
 -12 -6 0 15.34 4.18
 -12 -8 0 41.18 4.69
 13 -1 0 6.44 2.64
 -13 -1 0 3.52 2.94
 -13 -3 0 -1.99 3.31
 -13 -5 0 -4.05 3.74
 -13 -7 0 2.02 4.24
 -13 -9 0 -1.86 4.48
 -14 -4 0 510.26 18.93
 14 -4 0 463.89 18.6
 -14 -6 0 98.99 5.59
 -14 -8 0 13.52 4.31
 -14 -10 0 2.36 4.37
 -14 -12 0 123.23 8.13
 -15 -1 0 1.52 2.95
 -15 -3 0 -0.92 3.26
 -15 -5 0 -7.01 3.68
 15 -5 0 -0.76 3
 -15 -7 0 -6.06 3.98
 -15 -9 0 2.88 4.44
 -15 -11 0 -3.51 4.65
 -15 -13 0 -0.37 4.59
 -16 -4 0 768.43 29.18
 -16 -6 0 227.73 10.19
 16 -6 0 227.76 9.59
 -16 -8 0 30.47 4.38
 -16 -10 0 10.49 4.58
 -16 -12 0 95.74 7.41
 -16 -14 0 203.78 10.32
 -16 -16 0 220.78 10.64
 17 -1 0 1.08 2.67
 17 -3 0 3.24 2.48
 -17 -3 0 -2.7 3.22
 17 -5 0 -3.42 2.73
 -17 -5 0 -2.26 3.59
 -17 -7 0 -0.83 3.96
 -17 -9 0 -6.35 4.14
 -17 -11 0 5.49 4.65
 -17 -13 0 8.66 4.66
 -17 -15 0 8.98 4.79
 -17 -17 0 3.04 4.73
 -18 -4 0 752.32 28.6
 -18 -6 0 238.37 10.57
 18 -6 0 236.96 9.83
 -18 -8 0 85.9 5.59
 -18 -10 0 21.33 4.44
 -18 -12 0 17.53 4.87
 -18 -14 0 113.01 8.04
 -18 -16 0 135.35 8.29
 -18 -18 0 93.14 7.88
 -19 -3 0 -6.33 3.21
 -19 -5 0 -2.66 3.54
 -19 -7 0 -5.38 3.91
 -19 -9 0 4.09 4.23
 -19 -11 0 -6.82 4.52
 -19 -13 0 -5 4.57
 -19 -15 0 8.35 4.84
 -17 -19 0 12.56 4.85
 -19 -17 0 3.17 4.71
 -19 -19 0 8.63 4.63
 -20 -4 0 4.19 3.43
 -20 -6 0 5.62 3.77
 20 -8 0 -0.17 3.07
 -20 -8 0 3.7 4.14
 -20 -10 0 21.55 4.56
 -20 -12 0 54.75 5.33
 -20 -14 0 68.22 5.64
 -20 -16 0 84.34 6.05
 -18 -20 0 36.65 4.92
 -20 -18 0 40.87 5.04
 -20 -20 0 24.36 4.85
 -21 -3 0 -1.7 3.11
 -21 -5 0 1.45 3.52
 -21 -7 0 8.18 4.07
 -21 -9 0 7.6 4.36
 -21 -11 0 4.99 4.61
 -21 -13 0 5.57 4.8
 -21 -15 0 9.25 4.83
 -17 -21 0 -0.58 4.52
 -21 -17 0 7.06 4.72
 -19 -21 0 14.06 4.91
 -21 -19 0 4.25 4.66
 -21 -21 0 7.4 4.51
 -22 -4 0 308.04 12.55
 -22 -6 0 105.08 6.67
 -22 -8 0 46.3 4.56
 22 -8 0 33.54 3.45
 -22 -10 0 4.6 4.46
 -22 -12 0 6.34 4.86
 -22 -14 0 31.14 5.1
 -22 -16 0 23.71 4.96
 -22 -18 0 25.79 4.83
 -18 -22 0 22.3 4.96
 -22 -20 0 16.93 4.59
 -20 -22 0 19.73 4.63
 -22 -22 0 2.04 4.33
 -23 -5 0 4.13 3.68
 -23 -7 0 3.87 3.95
 -23 -9 0 -2.82 4.38
 -23 -11 0 -6.21 4.55
 23 -11 0 -1.82 3.57
 -23 -13 0 1.86 4.82
 -23 -15 0 6.55 4.84
 -17 -23 0 2.82 4.8
 -23 -17 0 0.15 4.76
 -19 -23 0 1.83 4.53
 -23 -19 0 -8.81 4.6
 -23 -21 0 12.18 4.61
 -24 -4 0 52.35 4.18
 -24 -6 0 47.33 4.3
 -24 -8 0 27.98 4.29
 -24 -10 0 24.4 4.66
 -24 -12 0 33.03 5.04
 -24 -14 0 21.33 5.08
 -24 -16 0 17.55 4.95
 -18 -24 0 7.46 4.3
 -24 -18 0 10.17 4.87
 -24 -20 0 15.16 4.54
 -25 -5 0 3.17 3.51
 -25 -7 0 0.71 3.94
 -25 -9 0 1.08 4.24
 -25 -13 0 -2.38 4.69
 -25 -15 0 -7.55 4.87
 -25 -17 0 9.92 4.86
 -25 -19 0 -0.37 4.74
 -19 -25 0 4.69 4.82
 -26 -6 0 1.09 3.73
 -26 -8 0 13.69 4.15
 -26 -10 0 -0.55 4.36
 -26 -12 0 8.52 4.78
 -26 -14 0 9.38 4.86
 -26 -16 0 1.22 4.79
 -18 -26 0 1.11 4.12
 -26 -18 0 4.99 4.8
 -27 -9 0 0.33 4.14
 -27 -11 0 -2.04 4.37
 -27 -13 0 -0.38 4.73
 -27 -15 0 -6.44 4.72
 -27 -17 0 4.85 4.78
 -28 -10 0 4.34 4.18
 -28 -12 0 -2.93 4.51
 -28 -14 0 4.67 4.72
 -28 -16 0 -4.4 4.71
 -29 -7 0 -7.65 3.68
 -29 -9 0 2.15 3.97
 -29 -11 0 2.3 4.18
 -29 -13 0 1.36 4.52
 -30 -8 0 3.95 3.81
 -30 -10 0 0.94 4.46
 -3 0 1 0.94 1.25
 -3 -2 1 28.79 2.49
 -4 -1 1 37.84 2.45
 5 0 -1 109.23 4.9
 -5 0 1 97.79 4.92
 -5 -2 1 -0.64 2.71
 6 -1 -1 50.4 3.91
 -6 -1 1 49.61 4.23
 6 1 -1 55.05 3.39
 -6 -3 1 10.27 3.58
 -7 -2 1 26.35 3.46
 -7 -4 1 89.06 6.46
 8 -1 -1 153.77 6.64
 -8 -1 1 140.61 6.92
 8 1 -1 135.13 6.8
 -8 -3 1 34.02 3.63
 -8 -3 -1 31.66 3.67
 -8 -5 1 1.09 4.15
 -9 0 1 450.73 17.33
 -9 -2 1 16.96 3.28
 9 -2 -1 25.91 3.07
 9 2 -1 20.54 3.65
 -9 -2 -1 20.87 3.18
 9 -2 1 28.98 2.64
 -9 -4 1 1.3 3.74
 -9 -6 1 1.1 4.31
 -10 -1 1 24.67 3.26
 10 -1 -1 30.29 2.98
 10 -1 1 29.51 2.56
 -10 -1 -1 26.19 2.91
 10 1 -1 25.99 3.24
 -10 -3 1 -0.75 3.28
 -10 -5 1 4.23 4.12
 -10 -5 -1 6.02 3.92
 -10 -7 1 2.79 4.55
 11 0 -1 43.59 3.38
 -11 0 -1 46.01 3.12
 -11 0 1 41.42 3.31
 11 0 1 44.9 3.19
 -11 -2 1 36.2 3.68
 11 -2 -1 39.52 3.11
 11 2 -1 28.22 3.63
 -11 -2 -1 27.84 3.15
 -11 -4 1 6.29 3.71
 -11 -4 -1 12.76 3.64
 -11 -6 1 -7.98 4.02
 -11 -6 -1 -0.39 3.99
 -11 -8 1 7.74 4.43
 12 -1 -1 21.55 2.8
 -12 -1 1 18.65 3.27
 12 -1 1 23.71 2.59
 12 1 -1 21.88 3.32
 -12 -3 1 14.98 3.33
 12 -3 -1 13.56 2.98
 12 -3 1 11.84 2.56
 -12 -3 -1 10.24 3.26
 -12 -5 1 12.2 3.97
 -12 -5 -1 13.01 3.84
 -12 -7 1 -2.87 4.26
 -12 -7 -1 -6.43 4.1
 -12 -9 1 7.09 4.47
 13 0 -1 184.87 8.03
 -13 -2 1 10.62 3.23
 13 -2 -1 16.49 2.87
 -13 -2 -1 11.4 3.04
 13 -4 -1 19.22 3.16
 -13 -4 1 14.98 3.72
 -13 -4 -1 13.04 3.47
 -13 -6 1 1.43 3.85
 -13 -6 -1 5.58 4.01
 -13 -8 1 -2.82 4.41
 -13 -8 -1 -1.41 4.25
 -13 -10 1 0.79 4.67
 -13 -12 1 -0.03 4.72
 14 1 -1 2.56 3.08
 14 -3 -1 -0.88 2.77
 -14 -5 1 -0.32 3.82
 -14 -5 -1 -5 3.65
 -14 -7 1 3.12 4.1
 -14 -7 -1 1.58 4.17
 -14 -9 1 12.77 4.35
 -14 -9 -1 2.62 4.21
 -14 -11 1 9.62 4.52
 -14 -11 -1 6.03 4.44
 -14 -13 1 3.3 4.71
 15 0 -1 56.75 4.58
 15 -2 -1 14.23 2.7
 -15 -2 1 10.32 3.19
 -15 -4 1 16.26 3.67
 -15 -4 -1 17.47 3.45
 -15 -6 1 6.98 3.92
 -15 -8 1 0.1 4.14
 -15 -8 -1 -6.19 4.2
 -15 -10 1 0.07 4.54
 -15 -10 -1 -6.75 4.5
 -15 -12 1 -2.95 4.7
 -15 -12 -1 -1.86 4.51
 -15 -14 1 0.68 4.88
 -16 -1 1 -6.09 2.96
 16 1 -1 6.36 3.03
 -16 -5 1 7.98 3.63
 -16 -5 -1 8.39 3.59
 -16 -7 1 5.02 4.06
 -16 -7 -1 13.64 4.08
 -16 -9 1 4.16 4.22
 -16 -9 -1 12.35 4.4
 -16 -11 1 7.87 4.56
 -16 -11 -1 8.35 4.36
 -16 -13 1 8.95 4.68
 -16 -13 -1 8.43 4.52
 -16 -15 1 -2.42 4.84
 -15 -16 1 -4.37 4.77
 -16 -15 -1 -3.29 4.53
 17 0 -1 42.78 3.42
 -17 -2 1 20.48 3.23
 17 -2 -1 17.06 2.79
 -17 -2 -1 15.34 3.02
 -17 -4 1 13.64 3.54
 -17 -4 -1 14.6 3.43
 17 -6 -1 2.43 3.17
 -17 -6 1 3.24 3.88
 17 -6 1 7.24 2.73
 -17 -6 -1 0.44 3.77
 -17 -8 1 7.17 4.15
 -17 -8 -1 8.16 3.98
 -17 -10 1 9.61 4.36
 -17 -12 1 9.2 4.74
 -17 -12 -1 6.86 4.47
 -17 -14 1 1.73 4.7
 -17 -14 -1 7.3 4.71
 -17 -16 1 8.52 4.9
 -16 -17 1 5.47 4.67
 -17 -16 -1 9.15 4.59
 -18 -3 1 8.64 3.31
 -18 -5 1 11.75 3.88
 18 -5 -1 15.32 2.96
 -18 -5 -1 7.45 3.64
 -18 -7 1 17.31 4.04
 18 -7 -1 14.49 3.38
 -18 -7 -1 16.08 4
 -18 -9 1 20.88 4.43
 -18 -9 -1 19.08 4.29
 -18 -11 1 23.41 4.57
 -18 -11 -1 21.74 4.75
 -18 -13 1 11.59 4.6
 -18 -13 -1 9.48 4.77
 -18 -15 1 11.72 4.81
 -18 -15 -1 17.93 4.6
 -17 -18 -1 2.62 4.57
 -18 -17 1 11.32 4.72
 -18 -17 -1 2.62 4.94
 -17 -18 1 9.83 4.77
 19 0 -1 2.74 2.87
 -19 -2 1 0.85 3.2
 -19 -2 -1 0.77 2.94
 -19 -4 1 -0.97 3.51
 -19 -4 -1 2.36 3.27
 -19 -6 1 -0.48 3.87
 -19 -6 -1 -3.67 3.71
 19 -8 -1 -4.34 3.37
 -19 -8 1 8.8 4.18
 -19 -8 -1 3.87 4.23
 19 -8 1 2.67 3.14
 -19 -10 1 -2.61 4.55
 -19 -12 1 4.4 4.66
 -19 -12 -1 0.2 4.55
 -19 -14 1 3.36 4.79
 -19 -14 -1 6.02 4.73
 -19 -16 1 4.69 4.73
 -16 -19 1 1.95 4.51
 -19 -16 -1 12.81 4.62
 -18 -19 -1 -0.27 4.57
 -19 -18 1 -1.85 4.66
 -18 -19 1 11.8 5.01
 -19 -18 -1 2.42 4.7
 20 -1 -1 2.78 2.76
 -20 -3 1 -2.68 3.24
 -20 -5 -1 5.55 3.61
 -20 -7 1 -1.7 4.04
 -20 -7 -1 0.06 3.84
 -20 -9 1 2.86 4.34
 20 -9 -1 -0.16 3.5
 -20 -9 -1 -1.33 4.38
 -20 -11 1 -4.33 4.68
 -20 -11 -1 -2.55 4.6
 -20 -13 1 5.17 4.69
 -20 -13 -1 5.53 4.58
 -20 -15 1 4.17 4.8
 -20 -15 -1 -1.74 4.79
 -20 -17 1 -2.78 4.72
 -17 -20 1 8.82 4.84
 -20 -17 -1 -3.84 4.81
 -19 -20 -1 6.94 4.64
 -20 -19 1 -0.22 4.57
 -20 -19 -1 6.88 4.59
 -19 -20 1 0.52 4.58
 21 -2 -1 9.08 2.74
 -21 -4 1 6.42 3.46
 -21 -4 -1 6.02 3.39
 -21 -6 -1 4.41 3.81
 21 -8 -1 1.2 3.19
 -21 -8 1 2.42 4.29
 -21 -8 -1 9.8 4.06
 -21 -10 1 5.7 4.54
 -21 -10 -1 13.85 4.54
 -21 -12 1 3.56 4.79
 -21 -12 -1 2.48 4.63
 -21 -14 1 0.75 4.8
 -21 -14 -1 1.46 4.68
 -21 -16 1 5.38 4.74
 -16 -21 1 0.19 4.88
 -21 -16 -1 6.21 4.76
 -18 -21 -1 5.03 4.86
 -21 -18 1 3.61 4.8
 -18 -21 1 3.25 4.83
 -21 -18 -1 8.07 4.61
 -20 -21 -1 10.23 4.4
 -21 -20 1 7.47 4.85
 -21 -20 -1 7.44 4.84
 -22 -3 1 13.16 3.37
 -22 -5 1 6.76 3.81
 -22 -5 -1 7.13 3.58
 -22 -7 1 18.24 4.19
 22 -9 -1 10.04 3.32
 -22 -9 1 7.36 4.35
 -22 -9 -1 5.33 4.24
 -22 -11 1 9.42 4.68
 -22 -11 -1 5.05 4.68
 -22 -13 1 -2.39 4.81
 -22 -13 -1 9.25 4.84
 -22 -15 1 5.04 4.86
 -22 -15 -1 4.31 4.81
 -22 -17 1 -6.48 4.73
 -17 -22 1 3.25 4.56
 -22 -17 -1 1.32 4.67
 -22 -19 1 0.45 4.65
 -19 -22 -1 1.18 4.46
 -19 -22 1 -1.23 4.27
 -22 -19 -1 6.4 4.65
 -21 -22 -1 6.56 4.58
 -22 -21 1 4.18 4.53
 -21 -22 1 10.48 4.7
 -22 -21 -1 -3.43 4.46
 -23 -4 1 -2.23 3.45
 -23 -4 -1 -1.8 3.37
 -23 -6 1 -0.43 3.79
 -23 -6 -1 1.7 3.76
 -23 -8 1 11.73 4.31
 -23 -8 -1 4.65 4.17
 -23 -10 1 6.93 4.54
 -23 -10 -1 4.18 4.41
 -23 -12 1 3.74 4.75
 -23 -12 -1 6.44 4.66
 -23 -14 1 -6.66 4.92
 -23 -14 -1 6.67 4.88
 -23 -16 1 9.58 4.98
 -23 -16 -1 -11.58 4.81
 -23 -18 1 -1.64 4.68
 -18 -23 -1 -1.57 4.32
 -23 -18 -1 0 4.64
 -18 -23 1 0.48 4.35
 -20 -23 -1 13.33 4.9
 -23 -20 1 1.75 4.54
 -20 -23 1 3.8 4.59
 -23 -20 -1 4.23 4.46
 -23 -22 1 4.96 4.41
 -22 -23 -1 -3.04 4.22
 -23 -22 -1 3.42 4.27
 -22 -23 1 9.51 4.31
 -24 -5 1 4.28 3.63
 -24 -5 -1 1.02 3.36
 -24 -7 1 5.98 4.06
 -24 -7 -1 2.59 3.84
 -24 -9 1 2.56 4.37
 -24 -9 -1 5.51 4.28
 -24 -11 1 0.36 4.67
 -24 -11 -1 2.74 4.5
 -24 -13 1 -3.89 4.85
 -24 -13 -1 -2.51 4.83
 -24 -15 1 -0.57 4.92
 -24 -15 -1 11.06 4.85
 -24 -17 1 2.26 4.93
 -17 -24 1 4.89 4.94
 -24 -19 1 -1.46 4.7
 -19 -24 -1 6.58 4.5
 -24 -19 -1 1.78 4.63
 -19 -24 1 6.36 4.81
 -21 -24 -1 6.59 4.14
 -24 -21 1 -4.62 4.51
 -21 -24 1 -3.54 4.24
 -24 -21 -1 1.76 4.52
 -25 -6 1 2.45 3.76
 -25 -6 -1 1.64 3.64
 -25 -8 1 0.58 4.12
 -25 -8 -1 -0.82 3.94
 -25 -10 1 12.3 4.6
 -25 -10 -1 6.69 4.41
 -25 -12 1 -3.76 4.72
 -25 -12 -1 5.95 4.54
 -25 -14 1 5.49 4.87
 -25 -16 1 -1.8 4.84
 -25 -16 -1 8.49 4.87
 -18 -25 -1 -2.34 4.14
 -25 -18 1 4.7 4.85
 -18 -25 1 6.81 4.31
 -25 -18 -1 8.17 4.76
 -20 -25 -1 11.34 4.31
 -25 -20 1 3.39 4.66
 -20 -25 1 7.01 4.14
 -25 -20 -1 9.58 4.53
 -26 -7 1 -0.56 4
 -26 -7 -1 -3.37 3.78
 -26 -9 1 -4.71 4.17
 -26 -9 -1 0.67 4.12
 -26 -11 1 -0.09 4.64
 -26 -13 1 1.67 4.73
 -26 -13 -1 0.41 4.71
 -26 -15 1 1.67 4.88
 -26 -15 -1 -0.82 4.71
 -26 -17 1 0.86 4.83
 -26 -17 -1 7.43 4.83
 -17 -26 1 2.78 4.84
 -19 -26 -1 1.61 4.6
 -26 -19 1 3.51 4.75
 -26 -19 -1 7.37 4.71
 -19 -26 1 14.2 4.7
 -27 -6 1 3.83 3.75
 -27 -6 -1 -2.88 3.48
 -27 -8 1 -3.48 3.99
 -27 -8 -1 7.33 3.92
 -27 -10 1 -1.44 4.31
 -27 -10 -1 -4.41 4.12
 -27 -12 1 3.55 4.7
 -27 -12 -1 9.32 4.55
 -27 -14 1 0.07 4.87
 -27 -14 -1 -1.4 4.68
 -27 -16 1 5.25 4.86
 -27 -16 -1 -1.13 4.89
 -28 -7 1 -1.83 3.73
 -28 -7 -1 -6.26 3.68
 -28 -9 1 0.88 4.07
 -28 -9 -1 -0.14 3.93
 -28 -11 1 3.92 4.45
 -28 -11 -1 1.37 4.24
 -28 -13 1 1.15 4.63
 -28 -13 -1 2.42 4.62
 -28 -15 1 -2.87 4.74
 -28 -15 -1 3.1 4.77
 -29 -8 1 -3.58 3.78
 -29 -8 -1 -3.15 3.76
 -29 -10 1 -4.9 4.22
 -29 -10 -1 7.76 4.07
 -29 -12 1 3.5 4.44
 -29 -12 -1 -2.19 4.31
 -29 -14 1 7.45 4.66
 -29 -14 -1 6.83 4.58
 -30 -9 1 3.54 3.97
 -30 -11 1 -0.39 5.86
 -2 -2 2 -3.86 2.02
 -3 -1 2 -2.47 1.92
 -4 0 2 53.96 2.86
 4 2 -2 27.7 2.79
 5 -1 -2 36.07 2.88
 -5 -1 2 36.71 3.07
 -5 -1 -2 44.05 3.07
 -5 -3 2 18.76 3.33
 -6 0 2 171.1 7.22
 6 0 -2 157.3 7.17
 -6 -2 2 9.67 2.97
 6 2 -2 3.1 3.13
 -6 -4 2 2.55 3.74
 -7 -1 2 69.39 5.1
 7 1 -2 78.59 4.14
 -7 -1 -2 77.34 4.33
 -7 -3 2 29.52 3.65
 -7 -5 2 -5.53 4.23
 -8 0 2 374.86 14.63
 8 -2 -2 37.2 3.32
 -8 -2 2 37.35 3.52
 -8 -2 -2 38.34 3.43
 8 2 -2 43.11 3.82
 -8 -4 2 65.44 4.65
 -8 -6 2 9.41 4.56
 -9 -1 2 105.13 6.09
 9 1 -2 101.17 5.91
 -9 -3 2 18.54 3.59
 -9 -3 -2 25.1 3.57
 -9 -5 2 -1.37 4.2
 -9 -7 2 -1.71 4.34
 10 0 -2 121.18 6.24
 -10 0 2 119.21 6.34
 10 -2 -2 10.05 2.93
 -10 -2 2 3.68 3.41
 10 2 -2 3.08 3.51
 -10 -2 -2 3.2 2.85
 -10 -4 2 -2.56 3.7
 -10 -4 -2 -4.14 3.61
 -10 -6 2 -10.63 4.32
 -10 -8 2 5.19 4.51
 11 -1 -2 23.09 3.1
 -11 -1 2 16.36 3.23
 -11 -3 2 -8.24 3.44
 11 -3 -2 -1.14 3.04
 -11 -3 -2 -1.94 3.13
 -11 -5 2 0 3.81
 -11 -5 -2 4.31 3.84
 -11 -7 2 12.62 4.34
 -11 -9 2 34.32 4.94
 12 0 -2 4.8 2.91
 -12 -2 2 23.77 3.5
 -12 -2 -2 21.78 3.08
 12 2 -2 26.98 3.6
 -12 -4 2 -0.51 3.7
 -12 -4 -2 -5.09 3.47
 -12 -6 2 -0.37 4.19
 -12 -6 -2 8.58 3.96
 -12 -8 2 5.43 4.52
 -12 -10 2 4.14 4.55
 13 -1 -2 34.01 3.02
 -13 -1 2 28.34 3.39
 13 1 -2 22.64 3.43
 13 -3 -2 15.21 3.11
 -13 -3 -2 13.56 3.11
 -13 -5 2 19.29 3.99
 -13 -5 -2 26.18 3.87
 -13 -7 2 2.21 4.13
 -13 -7 -2 6.23 4.03
 -13 -9 2 6.44 4.56
 -13 -11 2 8.53 4.8
 -13 -13 2 8.52 4.6
 14 0 -2 11.31 3
 -14 -2 2 5.52 3.28
 14 2 -2 4.39 3.45
 -14 -2 -2 7.29 2.92
 14 -4 -2 1.67 3.05
 -14 -4 2 5.69 3.62
 -14 -4 -2 5.22 3.31
 -14 -6 2 1.78 3.83
 -14 -6 -2 2.45 3.86
 -14 -8 2 5.84 4.1
 -14 -8 -2 -2.4 4.07
 -14 -10 2 7.4 4.45
 -14 -12 2 3.76 4.72
 -14 -14 2 5.47 4.66
 -15 -1 2 7.35 3.15
 15 -1 -2 12.37 2.82
 15 -3 -2 7 2.88
 -15 -3 2 1.2 3.47
 -15 -3 -2 0.84 3.17
 15 -5 -2 6.94 3.18
 -15 -5 2 7.29 3.66
 -15 -5 -2 9.35 3.6
 -15 -7 2 0.87 4.11
 -15 -7 -2 -2.83 3.98
 -15 -9 2 7.75 4.35
 -15 -11 2 6.66 4.55
 -15 -11 -2 1.31 4.5
 -15 -13 2 3.89 4.6
 -15 -15 2 9.86 4.63
 16 0 -2 4.65 2.88
 -16 -2 2 15.74 3.38
 16 -2 -2 16.57 2.94
 -16 -4 2 16.07 3.77
 -16 -4 -2 14.12 3.3
 -16 -6 2 1.44 3.86
 16 -6 -2 0.12 3.29
 -16 -6 -2 -4.22 3.76
 -16 -8 2 3 4.09
 -16 -8 -2 5.68 4.16
 -16 -10 2 12.95 4.53
 -16 -10 -2 12.78 4.54
 -16 -12 2 2.47 4.68
 -16 -12 -2 7.16 4.39
 -16 -14 2 6.66 4.78
 -16 -16 2 5.68 4.68
 17 1 -2 0.05 3.09
 17 -3 -2 0.02 2.86
 -17 -3 2 -1.52 3.34
 -17 -3 -2 -3.84 3.03
 -17 -5 2 1.55 3.78
 17 -5 -2 4.44 3.03
 -17 -5 -2 -2.46 3.45
 -17 -7 2 -3.77 3.95
 -17 -7 -2 -5.74 3.99
 -17 -9 2 2.03 4.38
 -17 -9 -2 8.57 4.22
 -17 -11 2 4.99 4.41
 -17 -11 -2 7.26 4.52
 -17 -13 2 2.68 4.78
 -17 -13 -2 4.57 4.44
 -17 -15 2 10.51 4.67
 -17 -15 -2 2.75 4.55
 -15 -17 2 -7.7 5.04
 -17 -17 2 -0.8 4.53
 18 0 -2 20.71 3.11
 -18 -2 2 -6.64 3.18
 -18 -2 -2 -0.41 2.8
 18 -4 -2 -3.11 2.93
 -18 -4 2 3.58 3.58
 -18 -4 -2 -6.08 3.32
 -18 -6 2 -0.77 4.02
 18 -6 -2 5.54 3.22
 -18 -6 -2 -0.3 3.73
 -18 -8 2 2.67 4.19
 -18 -8 -2 0.69 4.19
 -18 -10 2 1.44 4.52
 -18 -12 2 5.24 4.53
 -18 -12 -2 3.28 4.4
 -18 -14 2 -5.07 4.7
 -18 -14 -2 5.35 4.7
 -18 -16 2 0.64 4.74
 -18 -16 -2 -2.2 4.68
 -16 -18 2 6.41 4.96
 -18 -18 2 6.54 4.75
 -18 -18 -2 -2.16 4.63
 19 -1 -2 5.9 2.89
 -19 -3 2 -0.58 3.34
 19 -3 -2 -4.72 2.74
 -19 -3 -2 -0.05 3.07
 -19 -5 2 1.39 3.67
 19 -5 -2 1.04 3.02
 -19 -5 -2 5.32 3.48
 19 -7 -2 -0.18 3.31
 -19 -7 2 7.8 4.05
 -19 -7 -2 5.54 4.01
 -19 -9 2 -1.99 4.42
 -19 -9 -2 2.31 4.21
 -19 -11 2 7.87 4.55
 -19 -11 -2 0.92 4.48
 -19 -13 2 4.52 4.66
 -19 -13 -2 3.5 4.63
 -19 -15 2 1.34 4.81
 -15 -19 2 4.9 5.15
 -19 -15 -2 9.76 4.66
 -19 -17 2 3.15 4.73
 -17 -19 2 1.32 4.69
 -19 -17 -2 10.19 4.74
 -19 -19 -2 7.31 4.58
 -19 -19 2 6.33 4.91
 20 0 -2 3.27 2.94
 20 -2 -2 8.6 2.79
 -20 -4 2 6.67 3.55
 -20 -6 2 -3.92 3.85
 -20 -6 -2 5.74 3.72
 20 -8 -2 3.62 3.24
 -20 -8 2 6.19 4.15
 -20 -8 -2 -3.85 4.07
 -20 -10 2 2.89 4.62
 -20 -10 -2 -0.71 4.5
 -20 -12 2 5.81 4.72
 -20 -12 -2 7.88 4.58
 -20 -14 2 -1.24 4.77
 -20 -14 -2 8.93 4.74
 -20 -16 2 -0.03 4.79
 -20 -16 -2 -0.09 4.48
 -16 -20 2 2.21 4.74
 -18 -20 -2 -2.43 4.52
 -20 -18 2 8.88 4.82
 -18 -20 2 -1.46 4.41
 -20 -18 -2 5.46 4.59
 -20 -20 2 7.98 4.74
 -20 -20 -2 9.31 4.93
 21 -3 -2 3.47 2.79
 -21 -3 2 -3.43 3.4
 -21 -5 2 1.62 3.67
 21 -5 -2 -0.53 2.89
 -21 -5 -2 -3.97 3.52
 21 -7 -2 -0.11 3.23
 -21 -7 2 -3.01 4.14
 -21 -7 -2 4.25 3.92
 -21 -9 2 0.69 4.42
 21 -9 -2 1.96 3.57
 -21 -9 -2 -1.68 4.29
 -21 -11 2 -1.84 4.79
 -21 -11 -2 3.53 4.56
 -21 -13 2 5.88 4.84
 -21 -13 -2 -2.79 4.62
 -21 -15 2 9.44 4.8
 -21 -15 -2 1.48 4.69
 -21 -17 2 5.12 4.74
 -17 -21 2 5.88 4.54
 -21 -17 -2 -1.89 4.69
 -21 -19 2 10.64 4.58
 -19 -21 -2 7.61 4.67
 -19 -21 2 -0.32 4.78
 -21 -19 -2 2.92 4.6
 -21 -21 -2 6.95 4.38
 -21 -21 2 -0.32 4.49
 22 -2 -2 8.71 2.85
 -22 -4 2 5.16 3.6
 -22 -4 -2 -1.27 3.19
 22 -6 -2 5.13 3.05
 -22 -6 2 1.64 3.93
 -22 -6 -2 1.67 3.7
 -22 -8 2 8.18 4.33
 -22 -8 -2 5.47 4.09
 -22 -10 2 3.32 4.55
 22 -10 -2 1.36 3.75
 -22 -10 -2 1.93 4.39
 -22 -12 2 0.89 4.85
 -22 -12 -2 8.94 4.73
 -22 -14 2 4.46 4.9
 -22 -14 -2 4.3 4.69
 -22 -16 2 -1.06 4.89
 -16 -22 2 3.57 4.6
 -22 -16 -2 2.37 4.71
 -22 -18 2 0.57 4.72
 -22 -18 -2 3.04 4.63
 -18 -22 2 11.07 4.99
 -20 -22 -2 10.3 4.49
 -22 -20 2 -8.17 4.38
 -22 -20 -2 7.12 4.56
 -20 -22 2 -3.02 4.56
 -22 -22 2 5.2 4.4
 -22 -22 -2 -5.77 4.5
 23 -3 -2 6.85 2.71
 -23 -5 2 14.44 3.82
 -23 -5 -2 11.04 3.54
 -23 -7 2 10.34 4.15
 -23 -7 -2 7.74 3.86
 -23 -9 2 9.87 4.55
 -23 -9 -2 -5.38 4.16
 23 -11 -2 12.56 3.88
 -23 -11 2 9.26 4.74
 -23 -11 -2 13.46 4.57
 -23 -13 2 7.68 4.87
 -23 -13 -2 0.49 4.71
 -23 -15 2 3.02 4.92
 -23 -15 -2 4.1 4.68
 -23 -17 2 0.45 4.87
 -17 -23 2 -0.85 4.86
 -23 -17 -2 -5.16 4.6
 -23 -19 2 1.62 4.76
 -19 -23 -2 7.42 4.48
 -23 -19 -2 4.08 4.61
 -19 -23 2 3.71 4.5
 -23 -21 2 5.84 4.67
 -21 -23 -2 8.8 4.33
 -21 -23 2 3.56 4.33
 -23 -21 -2 12.18 4.49
 -24 -4 2 -3.67 3.59
 -24 -6 2 1.7 3.91
 -24 -6 -2 -0.94 3.6
 -24 -8 2 4.92 4.24
 -24 -8 -2 4.95 4.03
 24 -10 -2 -0.48 5.41
 -24 -10 2 1.1 4.55
 -24 -12 2 -0.13 4.8
 -24 -12 -2 6.14 4.7
 -24 -14 2 1.11 5
 -24 -14 -2 7.59 4.85
 -24 -16 2 -0.89 4.93
 -16 -24 2 -1.8 4.25
 -24 -16 -2 -1.68 4.72
 -24 -18 2 6.3 4.88
 -18 -24 2 -2.26 4.31
 -24 -18 -2 6.05 4.7
 -24 -20 2 4.48 4.7
 -20 -24 -2 5.16 4.75
 -20 -24 2 7.4 4.2
 -24 -20 -2 1.07 4.47
 -25 -5 2 4.38 3.75
 -25 -7 2 8.57 4.08
 -25 -7 -2 -0.43 3.77
 -25 -9 2 -5.5 4.34
 -25 -9 -2 5.6 4.1
 -25 -11 2 6 4.7
 -25 -13 -2 0.71 4.68
 -25 -15 2 -1.49 4.93
 -25 -15 -2 9.29 4.95
 -25 -17 2 -1.45 4.94
 -25 -17 -2 -2.34 4.75
 -17 -25 2 0.58 4.8
 -25 -19 2 -1.84 4.7
 -19 -25 -2 2.27 4.38
 -19 -25 2 0.04 4.43
 -25 -19 -2 6.72 4.64
 -26 -6 2 0.37 3.76
 -26 -8 2 1.64 4.16
 -26 -8 -2 -5.25 3.83
 -26 -10 -2 5.8 4.32
 -26 -12 2 8.86 4.84
 -26 -12 -2 0.92 4.55
 -26 -14 -2 8.62 4.79
 -26 -16 2 0.58 4.82
 -26 -16 -2 5.09 4.9
 -16 -26 2 6.82 4.13
 -26 -18 2 0.58 4.84
 -26 -18 -2 2.81 4.66
 -18 -26 2 2.75 4.33
 -27 -7 2 8.3 3.92
 -27 -7 -2 6.34 3.73
 -27 -9 2 -2.84 4.23
 -27 -9 -2 5.34 4.08
 -27 -11 2 -1.37 4.52
 -27 -11 -2 0.9 4.38
 -27 -13 2 6.92 4.8
 -27 -13 -2 1.23 4.54
 -27 -15 2 -8.75 4.85
 -27 -15 -2 -0.72 4.69
 -27 -17 2 2.5 4.84
 -27 -17 -2 5.17 4.86
 -17 -27 2 7 4.77
 -28 -8 -2 5.48 3.81
 -28 -10 2 2.41 4.35
 -28 -10 -2 7.81 4.1
 -28 -12 2 -1.28 4.55
 -28 -12 -2 3.38 4.45
 -28 -14 2 1.09 4.85
 -28 -14 -2 -5.83 4.63
 -28 -16 2 10.55 4.84
 -16 -28 2 -5.62 4.05
 -28 -16 -2 -1.64 4.65
 -29 -9 2 6.54 4.13
 -29 -9 -2 7.53 3.91
 -29 -11 2 0.64 4.37
 -29 -11 -2 -1.63 4.05
 -29 -13 2 -7.11 4.51
 -29 -13 -2 8.05 4.38
 -30 -8 -2 0.73 4.79
 -30 -10 2 0.86 4.16
 -5 -4 3 90.53 6.24
 6 -1 -3 236.04 9.78
 -6 -1 3 241.75 10.01
 6 1 -3 243.55 9.9
 -6 -3 3 42.85 3.97
 6 3 -3 38.28 3.93
 -6 -5 3 132.01 7.6
 -7 -4 3 20.16 3.88
 -7 -6 3 12.74 4.56
 8 -1 -3 379.49 14.28
 8 1 -3 343.55 14.24
 -8 -3 3 35.57 3.76
 8 3 -3 27.27 3.91
 -8 -5 3 -3.77 4.39
 -8 -7 3 17.44 4.46
 -9 -2 3 535.83 20.34
 9 -2 -3 517.28 20.19
 -9 -4 3 4.07 4
 -9 -6 3 3.99 4.21
 -9 -8 3 38.55 4.71
 -10 -1 3 89.92 5.81
 10 -1 -3 94.39 5.6
 10 1 -3 78.6 5.59
 -10 -3 3 27.64 3.63
 -10 -3 -3 28.68 3.46
 10 3 -3 29.99 3.84
 -10 -5 3 -0.35 4.01
 -10 -7 3 15.97 4.53
 -10 -9 3 13.65 4.64
 -11 -4 3 187.9 8.9
 -11 -4 -3 188.62 8.72
 -11 -6 3 85.84 5.56
 -11 -8 3 25.8 4.65
 -11 -10 3 -1.51 4.81
 -12 -1 3 8.88 3.25
 12 -1 -3 9.51 3.04
 12 1 -3 3 3.21
 12 -3 -3 11.75 3.25
 -12 -3 3 14.2 3.61
 12 3 -3 11.37 3.68
 -12 -3 -3 9.09 3.19
 -12 -5 3 10.74 3.83
 -12 -5 -3 11.36 3.75
 -12 -7 3 13.29 4.27
 -12 -9 3 93.17 7.4
 -12 -11 3 33.6 4.97
 13 2 -3 864.9 32.65
 13 -4 -3 261.84 10.88
 -13 -4 3 247.81 11.05
 -13 -4 -3 269.98 10.88
 -13 -6 3 84.44 6.72
 -13 -6 -3 87.46 6.34
 -13 -8 3 3.08 4.29
 -13 -10 3 1.88 4.56
 -13 -12 3 28.51 4.93
 -12 -13 3 32.95 5.23
 -14 -1 3 20.93 3.42
 14 -1 -3 23.62 3.13
 -14 -3 3 69.34 4.54
 14 -3 -3 69.21 5.22
 -14 -3 -3 68.78 5.04
 -14 -5 3 198.69 9.31
 -14 -5 -3 188.68 8.91
 -14 -7 3 196.92 9.33
 -14 -7 -3 169.98 8.97
 -14 -9 3 231.04 10.81
 -14 -11 3 176.4 9.51
 -14 -13 3 113.29 7.86
 -13 -14 3 116.25 8.01
 15 0 -3 471 18.17
 15 -2 -3 215.65 9.28
 -15 -2 3 231.55 9.69
 15 2 -3 210.2 9.56
 15 -4 -3 8.45 3.21
 -15 -4 3 13.96 3.85
 -15 -4 -3 9.63 3.42
 -15 -6 3 8.72 4.03
 -15 -8 3 9.36 4.26
 -15 -8 -3 5.86 4.14
 -15 -10 3 10.65 4.5
 -15 -10 -3 4.47 4.22
 -15 -12 3 16.71 4.63
 -15 -14 3 47.37 5.46
 -14 -15 3 56.66 5.74
 16 -1 -3 20.99 3.06
 -16 -1 3 18.49 3.3
 16 1 -3 14.55 3.29
 16 -3 -3 92.4 5.82
 -16 -3 3 107.53 6.46
 -16 -3 -3 103.16 5.85
 -16 -5 3 221.34 10.01
 16 -5 -3 214.3 9.46
 -16 -5 -3 220.02 9.64
 -16 -7 3 307.94 13.15
 -16 -7 -3 307.02 12.86
 -16 -9 3 352.61 14.54
 -16 -9 -3 337.94 14.38
 -16 -11 3 268.07 12.06
 -16 -11 -3 264.77 12.02
 -16 -13 3 143.21 8.76
 -16 -15 3 44.79 5.37
 -15 -16 3 61.75 5.67
 17 0 -3 9.95 2.98
 -17 -2 3 5.52 3.34
 17 -2 -3 6.09 2.92
 17 2 -3 1.42 3.32
 -17 -4 3 54.11 4.2
 17 -4 -3 43.81 3.74
 -17 -4 -3 43.54 3.7
 17 -6 -3 42.13 3.86
 -17 -6 3 49.7 4.44
 -17 -6 -3 41.07 4.17
 -17 -8 3 43.38 4.69
 -17 -8 -3 45.3 4.48
 -17 -10 3 23.97 4.69
 -17 -10 -3 18.17 4.4
 -17 -12 3 9.45 4.65
 -17 -12 -3 10.91 4.43
 -17 -14 3 16.65 4.95
 -17 -14 -3 15.43 4.48
 -17 -16 3 16.62 4.79
 -16 -17 3 17.47 5.17
 18 -1 -3 9.17 2.97
 18 1 -3 2.81 3.16
 -18 -3 3 45.98 3.97
 -18 -3 -3 36.36 3.49
 -18 -5 3 87.89 6.26
 18 -5 -3 74.78 5.37
 -18 -5 -3 68.8 5.61
 -18 -7 3 105 7.18
 18 -7 -3 98.29 6.33
 -18 -7 -3 103.72 6.68
 -18 -9 3 135.83 8.08
 -18 -9 -3 134.01 7.92
 -18 -11 3 111.44 8
 -18 -11 -3 104.3 7.41
 -18 -13 3 63.66 5.54
 -18 -13 -3 66.78 5.43
 -18 -15 3 24.37 4.92
 -18 -15 -3 32.87 4.93
 -18 -17 3 2.62 4.66
 -17 -18 3 15.91 4.9
 -18 -17 -3 5.51 4.61
 19 0 -3 98.25 5.7
 -19 -2 3 72.87 5.63
 19 -2 -3 75.27 4.97
 19 -4 -3 16.92 3.09
 -19 -4 3 23.52 3.77
 -19 -6 3 18.69 4.11
 19 -6 -3 8.82 3.34
 -19 -6 -3 13.75 3.58
 19 -8 -3 6.39 3.48
 -19 -8 3 11.87 4.15
 -19 -8 -3 8.53 4.15
 -19 -10 3 6.71 4.68
 -19 -10 -3 13.99 4.3
 -19 -12 3 12.95 4.67
 -19 -12 -3 7.74 4.54
 -19 -14 3 -1.24 4.86
 -19 -14 -3 -2.33 4.6
 -19 -16 3 0.64 4.72
 -16 -19 3 6.15 5
 -19 -16 -3 11.67 4.75
 -19 -18 -3 1.3 4.83
 -18 -19 3 1.07 4.67
 20 -1 -3 4.02 2.95
 -20 -3 3 21.45 3.55
 20 -3 -3 21.57 3.05
 -20 -3 -3 20.5 3.12
 20 -5 -3 36.16 3.62
 -20 -5 3 35.57 4.28
 -20 -5 -3 46.07 3.88
 -20 -7 3 63.46 5.04
 20 -7 -3 68.7 5.36
 -20 -7 -3 62.85 4.74
 -20 -9 3 88.76 7.39
 20 -9 -3 94.46 6.38
 -20 -9 -3 96.25 7.1
 -20 -11 -3 58.8 5.17
 -20 -13 3 40.99 5.2
 -20 -13 -3 36.47 4.98
 -20 -15 3 13.33 4.74
 -20 -15 -3 13.4 4.64
 -15 -20 3 8.26 4.79
 -20 -17 3 3.68 4.8
 -20 -17 -3 11.65 4.46
 -17 -20 3 5.19 5.15
 -19 -20 -3 -8.48 4.62
 -20 -19 3 -2.15 4.61
 -20 -19 -3 -1.88 4.61
 -19 -20 3 5.51 4.62
 21 0 -3 55.87 4.65
 21 -2 -3 51.09 3.55
 -21 -4 3 53 4.29
 21 -4 -3 51.52 3.76
 -21 -4 -3 56.34 3.88
 21 -6 -3 21.92 3.45
 -21 -6 3 33.55 4.18
 -21 -6 -3 24.77 3.97
 -21 -8 3 19.94 4.48
 21 -8 -3 12.12 3.53
 -21 -8 -3 17.28 4.15
 -21 -10 3 10.86 4.6
 -21 -10 -3 1.47 4.38
 -21 -12 3 -2.08 4.86
 -21 -12 -3 2.6 4.66
 -21 -14 3 2.4 4.85
 -21 -14 -3 -4.21 4.62
 -21 -16 3 8.42 4.91
 -21 -16 -3 7.97 4.58
 -16 -21 3 0.31 5.11
 -21 -18 3 0.03 4.79
 -18 -21 3 5.52 4.62
 -21 -18 -3 3.51 4.55
 -20 -21 -3 7.87 4.45
 -21 -20 3 11.06 4.9
 -21 -20 -3 -1.35 4.59
 22 -3 -3 16.07 3.01
 -22 -3 3 12.88 3.6
 22 -5 -3 25.9 3.23
 -22 -5 3 30.16 4.09
 -22 -7 3 33.52 4.41
 22 -7 -3 22.01 3.56
 -22 -7 -3 33.8 4.09
 22 -9 -3 27.51 3.77
 -22 -9 3 31.33 4.77
 -22 -9 -3 22.56 4.39
 -22 -11 3 35.03 4.93
 -22 -11 -3 22.77 4.77
 -22 -13 3 25.46 5.04
 -22 -13 -3 29.56 4.91
 -22 -15 3 -0.71 4.88
 -15 -22 3 10.27 4.82
 -22 -15 -3 4.29 4.72
 -22 -17 3 7.97 4.87
 -22 -17 -3 -4.48 4.6
 -17 -22 3 5.55 4.76
 -22 -19 3 6.41 4.79
 -19 -22 -3 -5.32 4.3
 -22 -19 -3 -1.6 4.54
 -19 -22 3 4.42 4.41
 -22 -21 3 3.23 4.8
 -21 -22 -3 6.67 4.52
 -22 -21 -3 7 4.39
 -21 -22 3 7.62 4.54
 23 -4 -3 8.17 2.9
 -23 -4 3 5.19 3.64
 -23 -4 -3 -0.55 3.12
 -23 -6 3 -0.47 3.98
 23 -6 -3 3.83 3
 -23 -8 3 10.23 4.35
 -23 -8 -3 3.82 4.04
 -23 -10 3 3.01 4.74
 23 -10 -3 -1.97 3.58
 -23 -10 -3 9.87 4.37
 -23 -12 3 3.52 4.87
 -23 -12 -3 8.79 4.65
 -23 -14 3 13.02 5.02
 -23 -14 -3 8.73 4.72
 -23 -16 3 12.76 5.08
 -23 -16 -3 1.94 4.75
 -16 -23 3 4.32 4.44
 -23 -18 3 9.34 4.85
 -23 -18 -3 8.87 4.71
 -18 -23 3 4.85 4.3
 -23 -20 3 -7.77 4.55
 -20 -23 -3 9.32 4.52
 -20 -23 3 -0.22 4.38
 -23 -20 -3 -0.44 4.54
 -22 -23 -3 2.67 4.13
 -23 -22 3 -4.52 4.4
 -23 -22 -3 4.31 4.45
 -22 -23 3 1.6 4.62
 24 -1 -3 -0.87 2.83
 -24 -5 3 7.67 3.86
 -24 -5 -3 3.04 3.38
 -24 -7 3 -8.04 4.04
 -24 -7 -3 8.49 3.76
 24 -9 -3 8.77 3.44
 -24 -9 3 4.77 4.43
 -24 -9 -3 2.09 4.15
 -24 -11 3 -0.93 4.86
 -24 -11 -3 6.95 4.45
 -24 -13 3 12.8 4.98
 -24 -13 -3 6.83 4.8
 -24 -15 3 -6.22 4.94
 -15 -24 3 -5.74 4.83
 -24 -15 -3 -0.42 4.74
 -24 -17 3 9.28 4.92
 -17 -24 3 0.51 5.08
 -24 -17 -3 -5.12 4.63
 -24 -19 3 12.9 4.74
 -19 -24 -3 -0.23 4.29
 -24 -19 -3 2.27 4.5
 -19 -24 3 5.95 4.76
 -21 -24 -3 10.62 4.3
 -24 -21 3 6.89 4.54
 -21 -24 3 6.15 4.67
 -24 -21 -3 9.57 4.43
 -25 -6 3 63.66 4.74
 -25 -6 -3 55.93 4.34
 -25 -8 3 24.12 4.42
 -25 -8 -3 20.83 4.12
 -25 -10 3 -1.31 4.59
 -25 -10 -3 10.06 4.26
 -25 -12 3 -1.78 4.92
 -25 -12 -3 7.84 4.48
 -25 -14 3 4.82 4.94
 -25 -14 -3 2.17 4.73
 -25 -16 3 9.9 5.02
 -16 -25 3 5.65 4.28
 -25 -16 -3 8.82 4.73
 -25 -18 3 13.28 4.95
 -18 -25 3 10.82 4.52
 -25 -18 -3 9.48 4.68
 -20 -25 -3 10.66 4.68
 -25 -20 3 18.77 4.78
 -20 -25 3 8.08 4.4
 -25 -20 -3 2.2 4.57
 -26 -7 3 4.91 4.05
 -26 -9 3 3.33 4.41
 -26 -9 -3 -3.47 3.91
 -26 -11 3 1.85 4.67
 -26 -11 -3 -1.83 4.38
 -26 -13 3 4.51 4.92
 -26 -13 -3 1.33 4.61
 -26 -15 3 5.41 4.94
 -26 -15 -3 5.73 4.7
 -26 -17 3 0.88 4.88
 -26 -17 -3 2.93 4.76
 -17 -26 3 7.61 4.58
 -26 -19 3 -1.89 4.85
 -19 -26 -3 -3.13 4.19
 -19 -26 3 7.39 4.02
 -26 -19 -3 1.25 4.61
 -27 -6 3 -0.36 3.82
 -27 -8 3 1.62 4.18
 -27 -8 -3 5.89 3.74
 -27 -10 3 9.92 4.47
 -27 -10 -3 1.9 4.06
 -27 -12 3 -1.82 4.7
 -27 -12 -3 8.57 4.49
 -27 -14 -3 9.96 4.69
 -27 -16 3 5.56 4.91
 -27 -16 -3 7.93 4.69
 -16 -27 3 -0.01 4.02
 -28 -7 3 -0.13 4
 -28 -7 -3 -1.76 3.49
 -28 -9 3 8.48 4.28
 -28 -9 -3 3.89 3.78
 -28 -11 3 9.8 4.53
 -28 -13 3 3.21 4.68
 -28 -13 -3 1.37 4.48
 -28 -15 3 1.75 5.11
 -15 -28 3 -0.14 4.18
 -28 -15 -3 9.31 4.58
 -29 -8 3 2.23 4.02
 -29 -8 -3 1.21 3.55
 -29 -10 -3 -5.1 3.95
 -29 -12 3 5.7 4.51
 -29 -12 -3 3.07 4.11
 -29 -14 3 15.46 4.88
 -29 -14 -3 7.46 5.52
 -30 -9 3 6.92 4.04
 -30 -11 3 2.23 4.36
 -3 -1 4 13.28 2.34
 3 1 -4 17.85 2.21
 -1 -3 4 18.43 2.76
 -3 -3 4 3.33 3.15
 3 3 -4 -2.55 3.08
 -4 0 4 23.75 2.59
 4 0 -4 23.58 2.69
 -4 -4 4 95.22 6.33
 -5 -1 4 65.24 4.81
 5 -1 -4 59.67 4.66
 5 1 -4 59.77 4.62
 -5 -3 4 7.66 3.71
 5 3 -4 6.82 3.37
 -5 -5 4 -2.62 4.25
 6 0 -4 17.93 3.15
 -6 0 4 18.14 3.14
 6 2 -4 297.38 12.08
 -6 -4 4 69.48 4.69
 -6 -6 4 39.14 4.83
 -7 -1 4 231.01 9.81
 7 1 -4 219.95 9.52
 -7 -3 4 30.36 3.71
 7 3 -4 29.75 3.97
 -7 -5 4 8.39 4.42
 -7 -7 4 2.08 4.6
 -8 -2 4 109.08 6.48
 8 2 -4 97.49 6.42
 -8 -4 4 20.39 4.16
 8 4 -4 31.05 4.13
 -8 -6 4 5.02 4.38
 -8 -8 4 7.12 4.59
 -9 -1 4 190.54 8.63
 9 -1 -4 168.56 8.39
 9 1 -4 194.13 8.44
 -9 -3 4 2.61 3.63
 9 3 -4 -0.85 3.8
 -9 -5 4 -3.3 3.99
 -9 -7 4 2.97 4.44
 -9 -9 4 -1.61 4.63
 10 0 -4 178.81 8.31
 -10 0 4 189.99 8.41
 -10 -2 4 79.86 5.82
 10 -2 -4 74.34 5.62
 10 2 -4 75.97 5.62
 -10 -2 -4 75.99 4.75
 -10 -4 4 17.14 4.02
 10 4 -4 20.01 4.08
 -10 -6 4 32.4 4.36
 -10 -8 4 0.35 4.43
 -10 -10 4 15.55 4.93
 11 -1 -4 92.57 5.79
 11 1 -4 81.93 5.76
 11 -3 -4 3.57 3.33
 -11 -3 4 -0.57 3.69
 11 3 -4 3.51 3.85
 -11 -3 -4 -2.43 3.13
 -11 -5 4 10.88 4.12
 -11 -7 4 7.23 4.23
 -11 -9 4 9.84 4.63
 -11 -11 4 4.2 4.63
 12 0 -4 321.5 12.85
 -12 -2 4 11.49 3.61
 12 -2 -4 17.69 3.26
 12 2 -4 16.32 3.54
 -12 -4 4 0.19 3.62
 -12 -4 -4 -0.45 3.39
 -12 -6 4 -1.41 3.99
 -12 -8 4 16.3 4.49
 -12 -10 4 -0.51 4.55
 -12 -12 4 7.54 5.15
 13 -1 -4 77.08 5.3
 -13 -1 4 64.98 4.4
 13 1 -4 66.16 5.42
 13 -3 -4 8.76 3.23
 -13 -3 4 13.42 3.59
 13 3 -4 8.69 3.67
 -13 -5 4 -1.22 3.84
 -13 -5 -4 0.14 3.66
 -13 -7 4 1.13 4.24
 -13 -9 4 7.25 4.29
 -13 -11 4 17.5 4.72
 -11 -13 4 17.37 4.83
 -13 -13 4 -1.13 4.6
 14 0 -4 784.43 29.65
 14 -2 -4 269.55 11.46
 -14 -2 4 297.91 11.67
 14 2 -4 269.37 11.61
 14 -4 -4 134.61 6.96
 -14 -4 4 133.66 7.45
 -14 -4 -4 135.8 6.94
 -14 -6 4 61.56 4.97
 -14 -6 -4 69.82 4.76
 -14 -8 4 19.8 4.3
 -14 -10 4 -0.31 4.42
 -14 -12 4 -1.87 4.87
 -12 -14 4 0.51 4.64
 -14 -14 4 18.94 4.78
 15 -1 -4 35.22 3.31
 -15 -1 4 34 3.6
 15 1 -4 24.7 3.48
 15 -3 -4 5.2 3.12
 -15 -3 4 -1.54 3.51
 15 3 -4 6.51 3.57
 -15 -3 -4 3.43 2.86
 15 -5 -4 7.81 3.4
 -15 -5 4 3.78 3.79
 -15 -5 -4 0.02 3.48
 -15 -7 4 22.91 4.26
 -15 -7 -4 24.83 4.05
 -15 -9 4 3.37 4.2
 -15 -9 -4 5.09 4.06
 -15 -11 4 10.25 4.5
 -15 -13 4 0.61 4.56
 -13 -15 4 2.37 4.5
 -15 -15 4 -3.2 4.76
 16 0 -4 814.9 30.78
 -16 -2 4 333.78 13.08
 16 -2 -4 314.06 12.86
 16 2 -4 316.69 12.98
 16 -4 -4 63.37 5.24
 -16 -4 4 76.18 6.13
 -16 -4 -4 70.75 5.24
 16 -6 -4 27.57 3.72
 -16 -6 4 25.06 4.11
 -16 -6 -4 25.94 3.88
 -16 -8 4 -0.62 4.29
 -16 -8 -4 3.44 4.12
 -16 -10 4 -3.69 4.41
 -16 -10 -4 0.75 4.1
 -16 -12 4 12.87 4.59
 -16 -14 4 47.5 5.16
 -14 -16 4 42.76 5.02
 -16 -16 4 70.66 5.82
 17 -1 -4 8.78 3.1
 17 1 -4 16.24 3.31
 -17 -3 4 11.05 3.59
 -17 -5 4 -2.16 3.94
 17 -5 -4 3.99 3.26
 -17 -5 -4 -1.43 3.44
 -17 -7 4 14.83 4.19
 -17 -7 -4 10.4 3.9
 -17 -9 4 2.1 4.26
 -17 -11 4 4.77 4.66
 -17 -11 -4 5.34 4.35
 -17 -13 4 3.8 4.62
 -17 -13 -4 2.74 4.3
 -13 -17 4 -4.04 5.11
 -17 -15 4 5.25 5.09
 -15 -17 4 3.74 4.62
 -17 -17 4 -1.04 5.03
 18 0 -4 162.44 7.51
 -18 -2 4 42.22 3.94
 18 -2 -4 41.39 3.51
 18 2 -4 48.31 3.83
 -18 -4 4 -4.7 3.63
 18 -4 -4 -3.77 3.15
 -18 -4 -4 0.49 3.1
 -18 -6 4 1.34 4.13
 18 -6 -4 0.36 3.37
 -18 -6 -4 -4.49 3.53
 -18 -8 4 4.73 4.16
 -18 -8 -4 8.76 4.12
 -18 -10 4 9.15 4.62
 -18 -10 -4 11.84 4.26
 -18 -12 4 19.92 4.91
 -18 -12 -4 22.6 4.55
 -18 -14 4 34.03 5.08
 -18 -14 -4 34.43 4.8
 -14 -18 4 32.4 5.14
 -18 -16 4 54.05 5.39
 -16 -18 4 52.67 5.23
 -18 -18 4 32.08 5.28
 19 -1 -4 5.96 3
 19 1 -4 9.96 3.26
 -19 -3 4 4.85 3.63
 19 -3 -4 7.95 3.08
 -19 -3 -4 4.01 2.79
 -19 -5 4 2.51 3.81
 19 -5 -4 0.46 3.3
 -19 -5 -4 4.41 3.38
 19 -7 -4 3.45 3.39
 -19 -7 4 2.57 4.2
 -19 -7 -4 6.48 3.83
 -19 -9 4 -3.04 4.44
 -19 -9 -4 3.35 4.1
 -19 -11 4 5.87 4.78
 -19 -11 -4 -0.32 4.41
 -19 -13 4 2.15 4.65
 -19 -13 -4 9.37 4.52
 -19 -15 4 7.24 4.77
 -19 -15 -4 10.85 4.72
 -15 -19 4 4.23 4.77
 -19 -17 4 0.51 4.64
 -17 -19 4 2.79 4.62
 -19 -17 -4 7.23 4.65
 -19 -19 4 8.66 4.97
 -19 -19 -4 -2.39 4.57
 20 0 -4 196.11 8.67
 20 -2 -4 102.49 5.84
 20 -4 -4 38.06 3.56
 -20 -4 4 46.77 4.2
 -20 -4 -4 52.12 3.65
 20 -6 -4 16.13 3.5
 -20 -6 4 19.17 4.17
 -20 -6 -4 17.21 3.53
 -20 -8 4 5.19 4.47
 -20 -8 -4 3.21 4.05
 -20 -10 4 3.85 4.5
 -20 -10 -4 3.65 4.36
 -20 -12 4 4.98 4.86
 -20 -12 -4 1.61 4.57
 -20 -14 4 24.26 4.92
 -20 -14 -4 16.12 4.66
 -14 -20 4 11.85 4.72
 -20 -16 4 17.56 4.83
 -16 -20 4 17.62 4.72
 -20 -16 -4 16.38 4.83
 -20 -18 4 12.5 4.77
 -18 -20 4 14.56 4.83
 -20 -18 -4 15.77 4.94
 -20 -20 4 7.32 4.78
 -20 -20 -4 8.19 4.9
 21 -1 -4 4.59 3.05
 21 1 -4 1.92 3.25
 -21 -3 4 1.59 3.66
 -21 -5 4 -6.7 3.88
 21 -5 -4 -4.48 3.22
 -21 -5 -4 -7.97 3.33
 21 -7 -4 4.32 3.37
 -21 -7 4 1.38 4.16
 -21 -7 -4 1.46 3.58
 -21 -9 4 7.59 4.58
 21 -9 -4 8.63 3.83
 -21 -9 -4 4.14 4.18
 -21 -11 4 7.88 4.73
 -21 -11 -4 3.25 4.44
 -21 -13 4 1.07 4.85
 -21 -13 -4 10.32 4.65
 -21 -15 4 3.95 4.8
 -21 -15 -4 6.56 4.56
 -15 -21 4 -2.05 4.57
 -17 -21 4 9.02 4.61
 -21 -17 -4 6.46 4.53
 -21 -19 4 3.01 4.65
 -21 -19 -4 11.24 4.67
 -19 -21 4 -4.54 4.85
 -21 -21 4 7.18 4.57
 -21 -21 -4 5.81 4.47
 22 0 -4 17.1 3.11
 22 -2 -4 11.63 3.01
 22 -4 -4 3.83 2.99
 -22 -4 4 0.89 3.66
 -22 -6 4 1.9 4.03
 22 -6 -4 -1.51 3.37
 -22 -6 -4 -2.01 3.45
 22 -8 -4 -0.48 3.53
 -22 -8 4 10.03 4.38
 -22 -8 -4 -0.42 3.87
 -22 -10 4 8.37 4.72
 22 -10 -4 -4.92 3.93
 -22 -10 -4 -2.72 4.35
 -22 -12 4 1.51 4.83
 -22 -14 4 11.68 4.97
 -14 -22 4 16.16 5.2
 -22 -14 -4 8.45 4.69
 -22 -16 4 17.88 5.09
 -22 -16 -4 15.98 4.73
 -16 -22 4 13.83 5.06
 -22 -18 4 9.68 4.83
 -18 -22 4 8.21 4.96
 -22 -18 -4 6.34 4.51
 -22 -20 4 -0.97 4.53
 -20 -22 -4 19.83 4.51
 -20 -22 4 9.14 4.86
 -22 -22 4 2.23 4.48
 -22 -22 -4 -4.46 4.34
 23 -1 -4 4.12 2.96
 23 -3 -4 3.88 3.01
 -23 -5 4 5.23 3.85
 23 -7 -4 4.25 3.42
 -23 -7 4 8.23 4.29
 -23 -7 -4 1.48 3.79
 -23 -9 4 8.56 4.65
 -23 -9 -4 4.94 4.05
 -23 -11 4 4.91 4.79
 -23 -11 -4 2.14 4.4
 -23 -13 4 8.47 4.95
 -23 -13 -4 -2.01 4.64
 -23 -15 4 3.77 4.92
 -23 -15 -4 2.35 4.67
 -15 -23 4 10.08 4.81
 -23 -17 4 -5.63 4.92
 -23 -17 -4 8.46 4.66
 -17 -23 4 4.1 4.89
 -23 -19 4 6.35 4.83
 -23 -19 -4 3.53 4.46
 -19 -23 4 4.88 4.65
 -21 -23 -4 3.88 4.78
 -23 -21 4 4.49 4.5
 -21 -23 4 1.84 4.41
 -23 -21 -4 7.13 4.41
 24 -2 -4 35.06 3.44
 24 -4 -4 18.35 3.06
 -24 -4 4 14.96 3.88
 24 -6 -4 8.61 3.1
 -24 -6 4 7.88 4.09
 -24 -6 -4 7.99 3.51
 24 -8 -4 1.99 3.43
 -24 -8 4 9.05 4.44
 -24 -8 -4 0.56 3.94
 24 -10 -4 6.86 3.75
 -24 -10 4 4.93 4.69
 -24 -10 -4 3.4 4.24
 24 -12 -4 2.75 3.96
 -24 -12 4 1.22 4.86
 -24 -12 -4 0.97 4.56
 -24 -14 4 -2.41 5.02
 -14 -24 4 2.01 4.52
 -24 -16 4 -3.5 5.01
 -24 -16 -4 -5.17 4.62
 -16 -24 4 3.88 4.37
 -24 -18 4 9.45 5.01
 -24 -18 -4 6.03 4.54
 -18 -24 4 1.99 4.34
 -20 -24 -4 -0.72 4.5
 -24 -20 4 -1.63 4.65
 -24 -20 -4 10.72 4.59
 -20 -24 4 1.13 4.33
 25 -1 -4 4.96 2.89
 -25 -5 4 0.94 3.85
 25 -5 -4 5.71 3.01
 -25 -7 4 2.44 4.15
 -25 -7 -4 1.18 3.53
 -25 -9 4 4.99 4.49
 -25 -9 -4 9.85 4
 -25 -11 4 12.36 4.92
 -25 -11 -4 4.69 4.37
 -25 -13 4 -2.9 4.94
 -25 -13 -4 -0.57 4.57
 -25 -15 -4 9.15 4.75
 -15 -25 4 4.29 4.93
 -25 -17 4 -1.81 4.95
 -17 -25 4 0.77 4.6
 -25 -19 4 8.28 5.01
 -25 -19 -4 2.81 4.54
 -19 -25 4 3.48 4.19
 -26 -6 4 -1.68 3.94
 -26 -8 4 2.34 4.25
 -26 -8 -4 4.93 3.68
 -26 -10 4 1.14 4.62
 -26 -10 -4 5.34 4.13
 -26 -12 4 3.19 4.92
 -26 -12 -4 -1.97 4.4
 -26 -14 4 4.52 5
 -26 -14 -4 3.86 4.65
 -14 -26 4 6.52 4.51
 -26 -16 4 1.68 5
 -16 -26 4 8.44 4.33
 -26 -16 -4 11.74 4.84
 -26 -18 4 2.85 4.9
 -26 -18 -4 3.85 4.62
 -18 -26 4 9.31 4.56
 -27 -7 4 5.91 4.06
 -27 -9 4 4.08 4.39
 -27 -9 -4 -0.83 3.89
 -27 -11 4 2.81 4.57
 -27 -11 -4 7.3 4.24
 -27 -13 4 4.01 4.97
 -27 -13 -4 7.29 4.47
 -27 -15 4 -1.71 4.96
 -15 -27 4 -5.21 4.61
 -27 -17 4 -5.79 4.82
 -27 -17 -4 -3.06 4.77
 -28 -8 4 0.83 4.09
 -28 -10 4 -5.35 4.33
 -28 -10 -4 -0.85 3.85
 -28 -12 4 2.04 4.58
 -28 -12 -4 12.42 4.36
 -28 -14 4 -3.98 4.78
 -14 -28 4 -6.01 4.7
 -28 -14 -4 0.79 4.43
 -28 -16 4 3.23 5.02
 -16 -28 4 6.47 3.99
 -28 -16 -4 -5.2 4.64
 -29 -7 4 -6.75 4.01
 -29 -9 4 -1.74 4.17
 -29 -11 4 -2.94 4.38
 -29 -13 4 -0.27 4.6
 -29 -13 -4 8 4.56
 -30 -8 4 -0.58 3.99
 -30 -10 4 -2 4.16
 0 1 -5 8.48 1.97
 0 -1 5 9.12 2
 -2 -1 5 10 2.29
 1 2 -5 5.84 2.25
 1 -2 5 3.98 1.94
 -2 1 -5 8.4 1.51
 2 1 -5 7.55 2.33
 -1 -2 5 7.33 2.27
 -3 0 5 88.22 4.8
 3 0 -5 84.24 4.65
 2 3 -5 155.35 7.23
 -2 -3 5 156.36 7.15
 -4 -1 5 3 2.72
 4 1 -5 1.74 2.57
 -4 -3 5 94.41 6.01
 4 3 -5 98.73 6.27
 -3 -4 5 106.03 6.39
 -5 0 5 2.04 3.08
 5 0 -5 -2.38 2.87
 -5 -2 5 29.03 3.38
 -2 -5 5 31.09 4.02
 5 2 -5 21.89 3.51
 -5 -4 5 33.65 4.11
 -4 -5 5 36.64 4.68
 5 4 -5 39.89 4.34
 -6 -1 5 2.76 3.18
 6 -1 -5 6.75 3.1
 6 1 -5 8.6 3.04
 -6 -3 5 31.1 3.8
 6 3 -5 23.37 3.96
 -6 -5 5 4.54 4.47
 -5 -6 5 9.05 4.66
 -7 0 5 4.34 3.16
 7 0 -5 9.36 3.25
 -7 -2 5 68.14 4.48
 7 2 -5 73.14 4.5
 -7 -4 5 38.31 4.26
 7 4 -5 33.12 4.44
 -7 -6 5 41.04 4.88
 -6 -7 5 34.4 4.9
 -8 -1 5 6.04 3.54
 8 -1 -5 5 3.45
 8 1 -5 5.82 3.31
 -8 -3 5 11.79 3.77
 8 3 -5 4.01 3.79
 -8 -5 5 -2.92 3.95
 -8 -7 5 20.59 4.87
 -7 -8 5 10.74 4.92
 9 0 -5 2.43 3.38
 -9 0 5 -0.3 3.47
 9 -2 -5 8.53 3.57
 -9 -2 5 9.34 3.47
 9 2 -5 12.33 3.57
 -9 -4 5 1.26 4.1
 9 4 -5 -8.59 4.06
 -9 -6 5 5.51 4.17
 -9 -8 5 5.09 4.71
 -8 -9 5 -1.22 4.85
 -10 -1 5 10.46 3.55
 10 -1 -5 9.64 3.49
 10 1 -5 12.4 3.35
 -10 -3 5 3.73 3.78
 10 -3 -5 4.47 3.46
 10 3 -5 1.22 3.7
 -10 -5 5 -3.73 3.94
 -10 -7 5 0.93 4.15
 -10 -9 5 -0.01 4.86
 -9 -10 5 -0.2 5.15
 11 0 -5 64.45 5.33
 -11 0 5 58.5 4.12
 -11 -2 5 76.45 6.16
 -11 -4 5 31.61 4.22
 11 4 -5 37.04 4.22
 -11 -6 5 17.4 4.21
 -11 -8 5 10.48 4.49
 -11 -10 5 -2.53 4.85
 -10 -11 5 -2.58 4.85
 -12 -1 5 2 3.43
 12 -1 -5 2.71 3.28
 12 1 -5 2.74 3.35
 12 -3 -5 -1.86 3.38
 -12 -3 -5 -5.73 3.06
 12 3 -5 -0.03 3.7
 -12 -5 5 5.14 3.84
 -12 -7 5 1.69 4.28
 -12 -9 5 22.45 4.64
 -12 -11 5 1.85 4.7
 -11 -12 5 10.34 4.85
 13 0 -5 60.29 4.04
 -13 -2 5 80.98 4.7
 13 -2 -5 74.13 5.61
 13 2 -5 65.23 5.63
 13 -4 -5 55.73 4.18
 -13 -4 5 48.64 4.4
 -13 -4 -5 50.11 3.97
 13 4 -5 59.49 4.43
 -13 -6 5 4.07 4.16
 -13 -8 5 -2.18 4.33
 -13 -10 5 -4.01 4.58
 -13 -12 5 5.61 4.69
 -12 -13 5 11.48 4.81
 14 -1 -5 12.91 3.25
 14 1 -5 12.36 3.35
 -14 -3 5 17.11 3.84
 14 -3 -5 21.73 3.48
 14 3 -5 22.07 3.86
 -14 -5 5 21.43 4.12
 14 -5 -5 29.71 3.6
 -14 -5 -5 26.69 3.64
 -14 -7 5 16.69 4.27
 -14 -9 5 12.27 4.27
 -14 -11 5 16.62 4.6
 -11 -14 5 8.86 4.87
 -14 -13 5 12.61 4.89
 -13 -14 5 10.55 5.16
 15 0 -5 12.95 3.24
 -15 -2 5 15.03 3.53
 15 -2 -5 9.19 3.38
 15 2 -5 7.84 3.47
 15 -4 -5 9.55 3.31
 -15 -4 5 4.59 3.71
 -15 -6 5 -6.14 3.97
 -15 -6 -5 0.16 3.66
 -15 -8 5 4.36 4.33
 -15 -8 -5 -0.9 3.93
 -15 -10 5 3.08 4.4
 -15 -12 5 -2.98 4.62
 -12 -15 5 0.9 4.9
 -15 -14 5 10.49 4.79
 -14 -15 5 0.54 4.7
 16 -1 -5 8.43 3.09
 -16 -1 5 0.46 3.36
 16 1 -5 7.6 3.23
 -16 -3 5 6.17 3.63
 16 -3 -5 14.28 3.31
 16 3 -5 10.79 3.65
 16 -5 -5 12.75 3.39
 -16 -5 5 8.52 4.13
 -16 -5 -5 10.62 3.5
 -16 -7 5 -0.2 4.16
 -16 -7 -5 1.01 3.88
 -16 -9 5 -0.33 4.5
 -16 -9 -5 0.57 4.02
 -16 -11 5 9.13 4.52
 -16 -13 5 7.64 5.02
 -13 -16 5 6.48 5.08
 -16 -15 5 -0.04 4.83
 -15 -16 5 4.85 4.74
 17 0 -5 29.48 3.47
 17 -2 -5 9.62 3.09
 17 2 -5 13.99 3.53
 -17 -4 5 8.25 3.79
 17 -4 -5 12.45 3.27
 17 -6 -5 6.77 3.56
 -17 -6 5 6.83 4.14
 -17 -6 -5 0 3.63
 -17 -8 5 12.7 4.45
 -17 -8 -5 6.48 3.99
 -17 -10 5 12.29 4.61
 -17 -12 5 -0.87 4.69
 -12 -17 5 1.49 5.04
 -17 -14 5 0.05 4.56
 -14 -17 5 3.95 5.06
 -17 -16 5 -7.02 4.75
 -16 -17 5 -5.32 4.55
 18 -1 -5 4.22 3.12
 18 1 -5 4.73 3.29
 -18 -3 5 -0.32 3.53
 18 -3 -5 3.51 3.23
 18 3 -5 6.52 3.52
 -18 -5 5 1.86 3.91
 18 -5 -5 4.76 3.44
 -18 -5 -5 1.49 3.29
 -18 -7 5 7.17 4.19
 18 -7 -5 -2.95 3.58
 -18 -7 -5 1.45 3.73
 -18 -9 5 3.55 4.45
 -18 -9 -5 0.99 4.16
 -18 -11 5 21.55 4.88
 -18 -13 5 3.83 4.93
 -18 -13 -5 1.96 4.5
 -13 -18 5 2.01 5.14
 -18 -15 5 11.87 4.8
 -15 -18 5 0.25 5.07
 -18 -17 5 5.61 5.07
 -17 -18 5 7.94 4.68
 19 0 -5 1.58 3.12
 19 -2 -5 8.83 3.15
 -19 -2 5 5.32 3.51
 19 2 -5 3.82 3.26
 -19 -4 5 -3.14 3.84
 19 -4 -5 3.77 3.27
 19 -6 -5 -1.68 3.43
 -19 -6 5 -1.14 3.98
 -19 -6 -5 5.79 3.42
 19 -8 -5 -4.33 3.7
 -19 -8 5 5.16 4.31
 -19 -8 -5 2.28 4.07
 -19 -10 5 12.87 4.66
 -19 -10 -5 3.53 4.31
 -19 -12 5 4.11 4.65
 -19 -12 -5 4.41 4.46
 -19 -14 5 -0.36 4.77
 -19 -14 -5 6.41 4.5
 -14 -19 5 -7.61 5.41
 -19 -16 5 -2.21 4.78
 -16 -19 5 13.32 5
 -19 -16 -5 5.63 4.66
 -19 -18 5 2.25 5.04
 -18 -19 5 5.71 4.72
 20 -1 -5 6.56 3.16
 20 1 -5 3.93 3.26
 -20 -3 5 3.79 3.69
 20 -3 -5 0.87 3.02
 -20 -5 5 0.71 3.98
 20 -5 -5 -5.53 3.26
 20 -7 -5 3.03 3.56
 -20 -7 5 -0.19 4.37
 -20 -7 -5 -4.88 3.75
 20 -9 -5 6.03 3.88
 -20 -9 5 1.72 4.58
 -20 -9 -5 2.05 4.16
 -20 -11 5 -4.49 4.7
 -20 -11 -5 2.67 4.34
 -20 -13 5 1.98 4.91
 -13 -20 5 8.21 5.17
 -20 -15 5 8.41 5.07
 -15 -20 5 1.77 5.16
 -20 -15 -5 -1.22 4.57
 -20 -17 5 1.8 4.72
 -17 -20 5 2.34 4.86
 -20 -17 -5 0.19 4.61
 -20 -19 5 4.26 4.83
 -19 -20 5 6.14 4.56
 -20 -19 -5 5.6 4.55
 21 0 -5 18.87 3.25
 21 -2 -5 12.87 3.15
 21 -4 -5 2.28 3.23
 -21 -4 5 4.57 3.89
 -21 -6 5 9.42 4.17
 21 -6 -5 3.53 3.39
 -21 -8 5 2.41 4.55
 21 -8 -5 0.37 3.59
 -21 -8 -5 -1.97 3.88
 -21 -10 5 9.16 4.63
 21 -10 -5 -3.19 3.86
 -21 -10 -5 -1.61 4.27
 -21 -12 5 1.8 4.83
 -21 -12 -5 6.36 4.43
 -21 -14 5 1.19 4.92
 -21 -14 -5 2.97 4.5
 -14 -21 5 -2.13 4.84
 -21 -16 5 12.35 4.9
 -21 -16 -5 6.42 4.58
 -16 -21 5 7.37 4.93
 -21 -18 5 -2.17 4.72
 -21 -18 -5 8.63 4.75
 -18 -21 5 5.03 4.63
 -21 -20 5 -2.61 4.74
 -20 -21 -5 -0.29 4.35
 -21 -20 -5 6.99 4.67
 -20 -21 5 6.36 4.43
 22 -1 -5 2.99 3.09
 22 1 -5 2.59 3.18
 22 -3 -5 0.3 3.04
 -22 -5 5 3.19 4.04
 22 -5 -5 -2 3.21
 -22 -7 5 4.57 4.25
 22 -7 -5 5.65 3.5
 -22 -7 -5 1.62 3.54
 22 -9 -5 -5.15 3.66
 -22 -9 5 6.08 4.6
 -22 -9 -5 -1.46 4.05
 -22 -11 5 2.5 4.89
 22 -11 -5 6.86 3.93
 -22 -11 -5 -2.13 4.4
 -22 -13 5 -1.13 5.02
 -22 -13 -5 0.39 4.47
 -22 -15 5 0.42 4.87
 -22 -15 -5 2.6 4.59
 -15 -22 5 -8.27 4.48
 -22 -17 5 -3.46 4.84
 -17 -22 5 1.47 4.56
 -22 -17 -5 1.46 4.59
 -22 -19 5 3.37 4.88
 -19 -22 5 1.7 4.39
 -22 -19 -5 -1.54 4.42
 -21 -22 -5 -2.61 4.37
 -22 -21 5 -5.18 4.72
 -21 -22 5 -1.56 4.35
 -22 -21 -5 8.51 4.3
 23 0 -5 6.83 3.11
 23 -2 -5 4.1 2.95
 -23 -4 5 1.62 3.78
 23 -4 -5 0.59 3.14
 -23 -6 5 1.34 4.11
 23 -6 -5 5.22 3.45
 -23 -6 -5 -2.64 3.32
 -23 -8 5 -1.77 4.38
 23 -8 -5 -1.75 3.61
 -23 -8 -5 -1.13 3.83
 -23 -10 5 6.55 4.89
 -23 -10 -5 4.94 4.24
 -23 -12 5 -4.19 4.89
 23 -12 -5 -5.85 3.95
 -23 -12 -5 3.36 4.62
 -23 -14 5 9.67 5.02
 -23 -14 -5 -5 4.55
 -14 -23 5 -9.55 4.99
 -23 -16 5 -6.48 4.98
 -23 -16 -5 0.87 4.62
 -16 -23 5 4.84 4.68
 -23 -18 5 13.27 5.05
 -23 -18 -5 3.89 4.56
 -18 -23 5 0.34 4.34
 -23 -20 5 6.12 4.76
 -20 -23 -5 3 4.36
 -20 -23 5 0.29 4.27
 -23 -20 -5 4.66 4.52
 -23 -22 5 9.33 4.83
 -22 -23 -5 16.47 4.73
 -22 -23 5 -1.97 4.43
 -23 -22 -5 6.36 4.29
 24 -1 -5 6.19 3.11
 24 -3 -5 3.63 3.05
 24 -5 -5 6.01 3.13
 -24 -5 5 -0.74 3.93
 -24 -7 5 4.31 4.29
 24 -7 -5 -3.71 3.54
 24 -9 -5 2.51 3.62
 -24 -9 5 -1.43 4.59
 -24 -9 -5 5.91 3.92
 -24 -11 5 9.12 4.9
 24 -11 -5 2.37 3.79
 -24 -11 -5 2.53 4.38
 -24 -13 5 10.22 4.91
 24 -13 -5 -5.69 4.04
 -24 -13 -5 0.4 4.63
 -24 -15 5 -2.43 4.92
 -15 -24 5 -8.45 5
 -24 -15 -5 -3.6 4.57
 -24 -17 5 1.96 5
 -17 -24 5 2.92 4.86
 -24 -17 -5 4.69 4.54
 -24 -19 5 -9.57 5.01
 -19 -24 5 -1.08 4.58
 -24 -19 -5 8.3 4.46
 -21 -24 -5 7.86 4.71
 -24 -21 5 0.35 4.62
 -24 -21 -5 1.17 4.29
 -21 -24 5 -1.16 4.48
 -25 -6 5 0.62 4
 25 -6 -5 3.28 3.2
 -25 -8 5 6.71 4.43
 25 -8 -5 2.11 3.69
 -25 -8 -5 7.03 3.66
 25 -10 -5 1.22 3.91
 -25 -10 -5 -0.29 4.04
 25 -12 -5 -1.45 5.94
 -25 -12 5 -6.37 4.96
 -25 -12 -5 3.27 4.43
 -25 -14 5 -3.44 5.06
 -14 -25 5 8.6 4.49
 -25 -14 -5 5.95 4.68
 -25 -16 5 -1.61 4.95
 -16 -25 5 6.93 4.44
 -25 -16 -5 6.78 4.6
 -25 -18 5 2.03 4.88
 -25 -18 -5 1.97 4.54
 -18 -25 5 -7.65 4.57
 -25 -20 5 3.32 4.88
 -20 -25 -5 -3.62 4.31
 -25 -20 -5 -1.4 4.38
 -20 -25 5 -3.13 4.61
 -26 -7 5 6.3 4.2
 -26 -9 5 6.48 4.43
 -26 -9 -5 -0.57 3.91
 -26 -11 5 -6.11 4.73
 -26 -11 -5 -4.02 4.22
 -26 -13 5 0.74 5.1
 -26 -13 -5 5.47 4.47
 -26 -15 5 2.48 5.01
 -15 -26 5 0.7 4.92
 -26 -15 -5 -3.99 4.59
 -17 -26 5 7.27 4.22
 -26 -17 -5 3.46 4.79
 -26 -19 5 5.89 4.75
 -26 -19 -5 10.63 4.6
 -19 -26 5 8.78 4.18
 -27 -6 5 4.05 3.95
 -27 -8 5 2.12 4.23
 -27 -10 5 12.67 4.63
 -27 -10 -5 -3.59 3.94
 -27 -12 5 -0.72 4.9
 -27 -12 -5 1.31 4.33
 -27 -14 5 9.53 5.04
 -27 -14 -5 2.65 4.53
 -14 -27 5 -2.3 4.59
 -27 -16 5 5.76 5.04
 -27 -16 -5 -0.48 4.66
 -16 -27 5 -0.19 4.31
 -28 -7 5 -8.21 3.98
 -28 -9 5 2.89 4.37
 -28 -9 -5 4.71 3.68
 -28 -11 5 13.03 4.61
 -28 -13 5 -4.42 4.91
 -28 -13 -5 1.11 4.32
 -13 -28 5 -4.68 4.36
 -28 -15 5 9.21 5.03
 -15 -28 5 0.79 4.56
 -28 -15 -5 -3.42 4.56
 -29 -8 5 -4.56 3.97
 -29 -10 5 3.44 4.38
 -29 -12 5 1.22 4.55
 -29 -12 -5 5.92 4.37
 -29 -14 5 -8.85 4.77
 -14 -29 5 -0.52 4.46
 -30 -9 5 -4.99 4.07
 -30 -11 5 0.94 4.35
 0 0 -6 -1.45 1.82
 1 1 -6 2.34 2.29
 -1 -1 6 -3.58 2.31
 1 -1 6 1.06 1.97
 -2 -2 6 0.03 2.83
 2 -2 6 -1.52 2.09
 2 2 -6 -0.77 2.41
 1 -3 6 -0.95 2.62
 1 3 -6 5.56 2.86
 -3 1 -6 -1.6 1.58
 -3 -1 6 -0.97 2.62
 3 1 -6 -0.98 2.67
 -1 -3 6 2.31 3.28
 3 3 -6 2.92 3.35
 -3 -3 6 4.34 3.72
 3 -3 6 4.7 2.52
 -4 -4 6 0.27 4.06
 5 -1 -6 6.24 3.2
 -1 -5 6 13.43 3.78
 -5 -3 6 76.12 4.74
 5 3 -6 61.94 4.38
 -5 -5 6 128.64 7.65
 6 0 -6 166.68 8.15
 -6 0 6 178.2 8.2
 -6 -2 6 29.45 3.98
 6 2 -6 37.33 3.63
 -6 -4 6 22.08 4.11
 6 4 -6 24 4.01
 -6 -6 6 1.24 4.41
 -7 -1 6 22.58 3.77
 7 -1 -6 24 3.76
 7 1 -6 28.35 3.52
 -7 -3 6 26.74 3.83
 7 3 -6 28.12 3.82
 -7 -5 6 19.27 4.44
 -5 -7 6 16.41 5.05
 -7 -7 6 85.52 7.18
 8 -2 -6 240.47 10.53
 -8 -2 6 254.8 10.76
 8 2 -6 240.04 10.53
 -8 -4 6 83.36 5.38
 8 4 -6 90.84 5.51
 -8 -6 6 87.01 5.73
 -6 -8 6 89.84 6.12
 -8 -8 6 12.02 4.7
 -9 -1 6 6.75 3.57
 9 1 -6 6.41 3.55
 -9 -3 6 129.9 7.89
 9 3 -6 154.55 7.67
 -9 -5 6 100.36 7.31
 9 5 -6 103.09 7.49
 -9 -7 6 70.37 5.3
 -7 -9 6 93.36 7.56
 -9 -9 6 295.31 13.01
 10 0 -6 34 3.73
 -10 0 6 29.49 3.82
 10 -2 -6 11.76 3.58
 -10 -2 6 8.34 3.66
 10 2 -6 4.56 3.49
 -10 -4 6 8.04 4.01
 10 4 -6 11.66 4.19
 -10 -6 6 13.2 4.09
 -10 -8 6 6.12 4.39
 -8 -10 6 13.05 5.19
 -10 -10 6 3.51 5.04
 11 -1 -6 21.72 3.68
 11 1 -6 13.67 3.58
 -11 -3 6 43.1 4.2
 11 -3 -6 44.83 4.02
 11 3 -6 48.2 4.24
 -11 -5 6 193.17 9.67
 11 5 -6 208.35 9.74
 -11 -7 6 190.44 9.59
 -11 -9 6 377.48 15.92
 -9 -11 6 400.15 16.23
 -11 -11 6 181.59 9.63
 12 0 -6 36.49 3.81
 12 -2 -6 33.48 3.8
 -12 -2 6 32.02 3.9
 12 2 -6 33.15 3.73
 12 -4 -6 1.7 3.5
 -12 -4 6 -0.29 3.92
 12 4 -6 -3.65 3.98
 -12 -6 6 13.29 4.2
 -12 -8 6 12.45 4.36
 -12 -10 6 8.73 4.83
 -10 -12 6 -1.65 4.77
 -12 -12 6 2.54 4.71
 -13 -1 6 44.41 4.03
 13 -1 -6 46.62 3.88
 13 1 -6 38.66 3.89
 -13 -3 6 122.19 7.16
 13 -3 -6 124.18 6.91
 13 3 -6 115.78 6.87
 -13 -3 -6 127.99 6.13
 -13 -5 6 223.66 10.25
 -13 -7 6 114.56 7.55
 -13 -9 6 196.97 9.84
 -13 -11 6 167.03 9.07
 -11 -13 6 159.41 9.27
 -13 -13 6 150.05 9.06
 14 0 -6 22.44 3.4
 -14 -2 6 22.84 3.75
 14 -2 -6 22.56 3.44
 14 2 -6 18.3 3.63
 -14 -4 6 12.48 3.99
 14 -4 -6 13.62 3.45
 -14 -4 -6 8.64 3.35
 14 4 -6 13.8 3.87
 -14 -6 6 19.56 4.16
 -14 -8 6 -5.93 4.4
 -14 -10 6 -2.54 4.54
 -10 -14 6 4.47 5.02
 -14 -12 6 -0.49 4.68
 -12 -14 6 7.9 4.92
 -14 -14 6 -0.87 4.81
 15 -1 -6 8.06 3.28
 -15 -1 6 7.24 3.48
 15 1 -6 4.51 3.44
 -15 -3 6 11.55 3.74
 15 -3 -6 8.91 3.5
 -15 -3 -6 10.46 2.74
 15 3 -6 14.49 3.72
 15 -5 -6 25.61 3.73
 -15 -5 6 27.65 4.11
 -15 -5 -6 18.53 3.7
 -15 -7 6 26.47 4.35
 -15 -7 -6 21.69 3.95
 -15 -9 6 41.67 4.84
 -15 -11 6 26.52 4.86
 -11 -15 6 27 5.5
 -15 -13 6 14.9 4.73
 -13 -15 6 14.03 4.82
 -15 -15 6 2.75 5.14
 16 0 -6 146.03 7.22
 -16 -2 6 94.3 6.28
 16 -2 -6 86.23 5.88
 16 2 -6 89.57 5.98
 -16 -4 6 89.86 6.48
 16 -4 -6 82.03 5.7
 16 4 -6 68.06 5.93
 -16 -4 -6 77.49 5.17
 -16 -6 6 54.6 4.73
 16 -6 -6 49.22 4.18
 -16 -6 -6 62.29 4.5
 -16 -8 6 13.97 4.31
 -16 -10 6 6.88 4.64
 -12 -16 6 -1.76 5.14
 -16 -14 6 11.96 4.94
 -14 -16 6 3.67 4.86
 -16 -16 6 4.44 4.84
 17 -1 -6 6.25 3.14
 17 1 -6 2.15 3.17
 -17 -3 6 12.1 3.71
 17 -3 -6 7.19 3.37
 17 3 -6 16.81 3.64
 17 -5 -6 -4.12 3.49
 -17 -5 6 8.48 3.84
 -17 -5 -6 -2.01 3.42
 -17 -7 6 -3.39 4.24
 -17 -7 -6 -1.45 3.85
 -17 -9 6 15.61 4.54
 -17 -11 6 1.73 4.73
 -11 -17 6 5.56 4.79
 -13 -17 6 14.6 5.07
 -15 -17 6 8.11 5.16
 -17 -17 6 6.9 4.8
 18 0 -6 34.84 3.63
 -18 -2 6 39.88 4.05
 18 -2 -6 34.54 3.58
 18 2 -6 42.05 3.87
 -18 -4 6 6.08 3.72
 18 -4 -6 3.58 3.41
 -18 -4 -6 5.26 2.86
 18 -6 -6 0.78 3.46
 -18 -6 6 -1.66 4.03
 -18 -6 -6 -0.7 3.58
 -18 -8 6 1.13 4.27
 -18 -8 -6 0.94 3.96
 -18 -10 6 3.8 4.65
 -18 -10 -6 -5.9 4.28
 -18 -12 6 3.93 4.91
 -18 -12 -6 -0.19 4.32
 -18 -14 6 7.02 4.7
 -14 -18 6 4.93 5.1
 -18 -16 6 0.3 4.81
 -16 -18 6 5.52 5.13
 -18 -18 6 -5.14 4.76
 19 -1 -6 -0.37 3.19
 19 1 -6 4.58 3.32
 -19 -3 6 -0.96 3.61
 19 -3 -6 5.72 3.3
 19 3 -6 6.4 3.52
 -19 -5 6 1.48 4.01
 19 -5 -6 -0.05 3.47
 19 -7 -6 -1.08 3.57
 -19 -7 6 4.56 4.4
 -19 -7 -6 2.94 3.67
 -19 -9 6 -1.6 4.43
 -19 -9 -6 2.91 4.12
 -19 -11 6 16.4 4.77
 -19 -11 -6 12.58 4.41
 -19 -13 6 13.75 4.95
 -13 -19 6 9.48 4.84
 -19 -13 -6 1.48 4.54
 -19 -15 6 6.22 4.86
 -15 -19 6 7.27 4.88
 -19 -15 -6 2.67 4.53
 -19 -17 6 0.16 4.91
 -17 -19 6 0.95 5.18
 -19 -19 6 -0.22 4.76
 20 0 -6 51.02 3.82
 20 -2 -6 34.9 3.57
 20 2 -6 29.02 3.61
 20 -4 -6 27.45 3.66
 -20 -4 6 32.1 4.16
 -20 -6 6 27.97 4.4
 20 -6 -6 20.38 3.67
 -20 -6 -6 17.74 3.51
 20 -8 -6 15.86 4.02
 -20 -8 6 7.58 4.69
 -20 -8 -6 6.25 3.92
 -20 -10 6 12.03 4.6
 -20 -10 -6 9.06 4.24
 -20 -12 6 4.79 4.78
 -12 -20 6 5.51 5.23
 -20 -12 -6 14.64 4.43
 -20 -14 6 0.96 4.96
 -14 -20 6 4.01 4.86
 -20 -16 6 -2.41 4.83
 -16 -20 6 10.01 4.94
 -20 -16 -6 5.72 4.58
 -20 -18 6 0.53 4.62
 -18 -20 6 0.12 5.01
 -20 -18 -6 -4.6 4.37
 -20 -20 6 3.45 4.8
 21 -1 -6 6.4 3.23
 21 1 -6 8.62 3.29
 21 -3 -6 4.66 3.18
 -21 -3 6 -0.72 3.8
 21 -5 -6 2.19 3.54
 -21 -5 6 6.69 3.95
 21 -7 -6 9.39 3.65
 -21 -7 6 6.19 4.37
 -21 -7 -6 0.79 3.58
 21 -9 -6 -3.12 3.91
 -21 -9 6 -0.63 4.64
 -21 -9 -6 0.96 4.16
 -21 -11 6 -3.17 4.72
 -21 -11 -6 9.19 4.41
 -21 -13 6 7.63 5.12
 -13 -21 6 3.45 5.35
 -21 -13 -6 -1.38 4.4
 -21 -15 6 10.68 5.12
 -15 -21 6 8.22 5.24
 -21 -15 -6 5.96 4.55
 -21 -17 6 4.48 4.96
 -17 -21 6 -6.05 4.87
 -21 -17 -6 3.62 4.59
 -21 -19 6 5.22 4.74
 -21 -19 -6 2.98 4.59
 -19 -21 6 1.79 4.96
 -21 -21 6 0.52 4.69
 -21 -21 -6 6.86 4.46
 22 0 -6 10.87 3.41
 22 -2 -6 8.33 3.2
 -22 -4 6 1.54 3.83
 22 -4 -6 0.67 3.26
 22 -6 -6 7.19 3.71
 -22 -6 6 -5.9 4.16
 22 -8 -6 -4.24 3.68
 -22 -8 6 2.91 4.5
 -22 -8 -6 -2.98 3.76
 -22 -10 6 1.28 4.82
 22 -10 -6 -2.39 4.04
 -22 -10 -6 0.94 4.28
 -22 -12 6 -2.62 4.82
 -22 -12 -6 3.58 4.5
 -22 -14 6 1.55 5
 -22 -14 -6 -2.09 4.53
 -14 -22 6 1.75 5.19
 -22 -16 6 -2.09 4.98
 -16 -22 6 -5.56 5.04
 -22 -16 -6 -2.96 4.43
 -22 -18 6 8.81 4.93
 -18 -22 6 0.6 5.05
 -22 -18 -6 -2.84 4.38
 -22 -20 6 -1.75 4.66
 -20 -22 6 -3.39 4.84
 -22 -20 -6 1.5 4.64
 -22 -22 6 4.84 4.63
 -22 -22 -6 9.76 4.38
 23 -1 -6 5.87 3.3
 23 1 -6 1.15 3.25
 23 -3 -6 4.36 3.25
 23 -5 -6 8.84 3.36
 -23 -5 6 1.9 3.95
 -23 -7 6 8.9 4.32
 23 -7 -6 2.81 3.68
 -23 -7 -6 -0.27 3.6
 -23 -9 6 13.15 4.63
 23 -9 -6 6.32 3.85
 -23 -9 -6 7.91 4.01
 23 -11 -6 24.54 4.27
 -23 -11 6 21.85 5.12
 -23 -13 6 0.06 5.08
 -13 -23 6 8.25 4.45
 -23 -13 -6 9.14 4.62
 -23 -15 6 6.21 4.99
 -23 -15 -6 13.02 4.67
 -15 -23 6 5.73 4.83
 -23 -17 6 1.96 5.08
 -17 -23 6 5.68 4.87
 -23 -17 -6 5.35 4.5
 -23 -19 6 -1.39 5.05
 -23 -19 -6 4.4 4.36
 -19 -23 6 -3.38 4.77
 -23 -21 6 9.92 4.63
 -21 -23 -6 -0.23 4.32
 -23 -21 -6 3.75 4.27
 -21 -23 6 11.1 4.73
 24 0 -6 3.32 3.16
 24 -2 -6 4.85 3.09
 24 -4 -6 -0.17 3.23
 -24 -6 6 6.98 4.24
 24 -6 -6 0.59 3.44
 24 -8 -6 -3.13 3.74
 -24 -8 6 -7.33 4.36
 -24 -8 -6 0.81 3.71
 24 -10 -6 -2.47 3.76
 -24 -10 6 1.55 4.81
 -24 -10 -6 8.34 4.14
 -24 -12 6 9.26 5.13
 -24 -12 -6 9.19 4.55
 -24 -14 6 -0.47 4.97
 -14 -24 6 2.64 4.77
 -24 -14 -6 2.71 4.68
 -24 -16 6 13.48 5.04
 -24 -16 -6 2.46 4.53
 -16 -24 6 3.74 4.28
 -24 -18 6 0.9 4.97
 -18 -24 6 1.4 4.52
 -24 -18 -6 0.74 4.48
 -24 -20 6 5.88 5.05
 -20 -24 6 6.05 4.51
 -24 -20 -6 0.46 4.34
 25 -1 -6 2.59 3.05
 25 -3 -6 5.1 3.12
 -25 -5 6 19.43 4.15
 25 -5 -6 19.08 3.44
 25 -7 -6 22.5 3.75
 -25 -7 6 32.04 4.55
 25 -9 -6 28.52 3.99
 -25 -9 6 34.22 4.93
 -25 -9 -6 34.63 4.24
 -25 -11 6 25.74 5.16
 25 -11 -6 24.66 4.05
 -25 -11 -6 27.67 4.41
 -25 -13 6 20.72 5.27
 25 -13 -6 15.57 4.43
 -13 -25 6 12.58 4.33
 -25 -15 6 -3.76 4.97
 -15 -25 6 -3.98 5.05
 -25 -15 -6 6.95 4.67
 -25 -17 6 8.43 5
 -17 -25 6 2.43 4.34
 -25 -17 -6 2.69 4.47
 -25 -19 6 -0.1 4.78
 -19 -25 6 0.69 4.16
 -25 -19 -6 2.02 4.46
 26 -2 -6 49.31 3.82
 26 -4 -6 31.43 3.63
 -26 -6 6 20.1 4.18
 -26 -8 6 0.58 4.42
 -26 -10 6 3.35 4.7
 -26 -10 -6 4.9 4.06
 -26 -12 6 1.46 4.88
 -26 -12 -6 1.24 4.27
 -26 -14 6 10.54 5.2
 -26 -14 -6 9.89 4.59
 -14 -26 6 -0.88 4.49
 -26 -16 6 9.91 5.08
 -26 -16 -6 4.49 4.67
 -16 -26 6 13.82 4.61
 -26 -18 -6 5.71 4.58
 -18 -26 6 6.55 4.78
 -27 -7 6 26.62 4.35
 -27 -9 -6 24.8 3.84
 -27 -11 6 25.24 4.98
 -27 -11 -6 30.48 4.39
 -27 -13 6 15.76 5.04
 -13 -27 6 2.93 4.14
 -27 -13 -6 8.09 4.42
 -27 -15 6 11.16 5.13
 -27 -15 -6 6.89 4.61
 -15 -27 6 8.61 4.94
 -27 -17 -6 6.3 4.61
 -17 -27 6 7.25 4.03
 -28 -8 6 0.21 4.15
 -28 -10 6 -2.58 4.49
 -28 -12 6 -0.86 4.68
 -28 -12 -6 2.1 4.17
 -28 -14 6 3.49 5.02
 -14 -28 6 -7.2 4.57
 -28 -14 -6 0.46 4.42
 -29 -9 6 21.23 4.29
 -29 -9 -6 18.99 3.67
 -29 -11 6 5.54 4.5
 -29 -13 6 7.31 4.8
 -30 -8 6 -7.89 3.91
 -30 -10 6 4.26 4.23
 -1 0 -7 113.77 5.14
 1 0 -7 108.39 5.47
 -2 -1 7 115.42 5.64
 -1 -2 7 99.72 5.83
 0 -3 7 24.88 3.24
 -3 0 7 27.92 3.44
 2 3 -7 10.09 3.24
 -3 2 -7 15.62 2.31
 -3 -2 7 7.75 3.32
 2 -3 7 8.32 2.65
 -2 -3 7 14.51 3.46
 3 -2 7 12.86 2.23
 4 -1 -7 11.77 3.19
 -4 -1 7 10.56 3.48
 1 -4 7 12.63 3.36
 1 4 -7 3.01 3.7
 -1 -4 7 8.36 3.22
 -4 -3 7 86.26 6.02
 3 4 -7 81.86 6.22
 3 -4 7 79.78 5.39
 -3 -4 7 79.36 6.28
 4 3 -7 78.17 5.79
 4 -3 7 83.22 4.62
 4 5 -7 78.62 6.45
 -5 -4 7 63.8 4.83
 5 4 -7 65.03 4.93
 -4 -5 7 68.33 4.85
 -6 -1 7 122.05 6.96
 6 -1 -7 132.73 7.2
 -1 -6 7 131.38 7.83
 -6 -3 7 114.84 6.9
 -3 -6 7 114.66 7.69
 6 3 -7 115.82 6.86
 -6 -5 7 3.27 4.33
 6 5 -7 7.75 4.28
 -7 0 7 129.88 7.3
 7 0 -7 129.17 7.17
 -7 -2 7 324.06 13.55
 7 2 -7 343.19 13.61
 -7 -4 7 -0.85 4.26
 -4 -7 7 9.09 5
 7 4 -7 1.22 4.01
 -7 -6 7 2.91 4.2
 -6 -7 7 5.62 4.63
 -8 -1 7 16.2 3.58
 8 -1 -7 12.07 3.77
 8 1 -7 8.6 3.59
 -8 -3 7 49.61 4.55
 8 3 -7 45.82 4.22
 -8 -5 7 4.98 3.98
 -5 -8 7 -4.98 4.86
 8 5 -7 0.7 4.35
 -8 -7 7 36.54 4.77
 -7 -8 7 31.56 5.2
 -9 -4 7 177 8.81
 9 4 -7 169.84 8.51
 -9 -6 7 69.37 5.16
 -6 -9 7 75.17 5.81
 -9 -8 7 11.74 4.7
 -8 -9 7 14.95 4.93
 10 -1 -7 4.54 3.68
 -10 -1 7 9.83 3.61
 10 1 -7 0.21 3.5
 10 -3 -7 73.89 6.14
 -10 -3 7 82.36 5.1
 10 3 -7 74.74 4.9
 -10 -5 7 0.34 4
 10 5 -7 -0.39 4.18
 -10 -7 7 -3.43 4.23
 -7 -10 7 4.68 4.93
 -10 -9 7 31.41 5.25
 -9 -10 7 31.01 5.38
 11 0 -7 234.08 10.18
 -11 -2 7 393.16 15.43
 11 -2 -7 380.88 15.34
 11 2 -7 376.77 15.41
 -11 -4 7 83.77 6.8
 11 4 -7 91.45 6.61
 -11 -6 7 43.91 4.54
 -11 -8 7 1.77 4.18
 -8 -11 7 9.93 4.88
 -11 -10 7 -0.37 4.57
 -10 -11 7 5.93 5.35
 12 -1 -7 5.03 3.49
 -12 -1 7 -4.43 3.56
 12 1 -7 -0.16 3.47
 12 -3 -7 73.74 5.94
 -12 -3 7 72.75 4.81
 -12 -3 -7 69.85 4.77
 12 3 -7 71.4 5.9
 -12 -5 7 51.22 4.67
 12 5 -7 56.92 4.78
 -12 -7 7 69.15 5.1
 -9 -12 7 7.39 4.75
 -12 -11 7 51.1 5.18
 -11 -12 7 53.75 5.44
 13 0 -7 365.81 14.62
 13 -2 -7 249 11.07
 -13 -2 7 278.3 11.17
 13 2 -7 250.79 10.99
 13 -4 -7 18.17 3.81
 -13 -4 7 24.66 4.04
 13 4 -7 23.54 4.06
 -13 -6 7 13.37 4.11
 -13 -8 7 -2.78 4.31
 -8 -13 7 2.23 4.98
 -13 -10 7 -7.56 4.28
 -10 -13 7 -5.03 5.37
 -13 -12 7 30.75 4.89
 -12 -13 7 27.56 4.82
 -14 -1 7 11.17 3.65
 14 -1 -7 3.66 3.54
 14 1 -7 6.92 3.49
 14 -3 -7 121.09 6.91
 -14 -3 7 123.41 7.24
 14 3 -7 126.63 6.98
 14 -5 -7 184.49 8.63
 -14 -5 7 172.02 9.09
 -14 -5 -7 188.86 8.46
 14 5 -7 186.26 9.1
 -14 -7 7 144.79 8.17
 -14 -9 7 134.97 8.18
 -9 -14 7 123.17 8.67
 -14 -11 7 132.56 8.27
 -11 -14 7 100.15 8.49
 -14 -13 7 86.99 6.43
 -13 -14 7 100.77 6.66
 15 0 -7 35.7 3.66
 -15 -2 7 5.44 3.79
 15 -2 -7 5.33 3.48
 15 2 -7 11.87 3.48
 -15 -4 7 15.68 3.98
 15 -4 -7 9.36 3.59
 15 4 -7 4.37 3.71
 -15 -6 7 13.23 4.25
 -15 -6 -7 3.73 3.55
 -15 -8 7 4.88 4.29
 -10 -15 7 11.73 5.61
 -15 -12 7 3.74 4.45
 -12 -15 7 4.65 4.95
 -15 -14 7 19.02 4.66
 -14 -15 7 7.8 4.75
 16 -1 -7 2.27 3.31
 16 1 -7 2.98 3.49
 16 -3 -7 44.83 4.08
 -16 -3 7 48.61 4.34
 16 3 -7 52.65 4.22
 16 -5 -7 131.49 7.05
 -16 -5 7 133.71 7.82
 -16 -5 -7 121.59 6.74
 -16 -7 7 173.11 8.58
 -16 -7 -7 149.19 8.07
 -16 -9 7 151.41 8.55
 -16 -11 7 126.49 8.25
 -11 -16 7 127.89 8.68
 -16 -13 7 56.58 5.23
 -13 -16 7 55.63 5.82
 -16 -15 7 12.67 5.09
 -15 -16 7 8.82 5.07
 17 0 -7 64.21 4.29
 17 -2 -7 66.09 4.3
 -17 -2 7 75.28 4.68
 17 2 -7 58.49 4.46
 17 -4 -7 9.81 3.47
 17 4 -7 15.48 3.8
 17 -6 -7 9.81 3.85
 -17 -6 7 3.78 4.25
 -17 -6 -7 2.43 3.59
 -17 -8 7 12.73 4.55
 -17 -8 -7 12.11 3.97
 -17 -10 7 16.04 4.66
 -17 -12 7 -1.89 4.69
 -12 -17 7 4.29 4.85
 -17 -14 7 -3.16 4.86
 -14 -17 7 0.74 4.91
 -17 -16 7 -5.4 4.51
 -16 -17 7 4.18 5.22
 18 -1 -7 4.5 3.31
 18 1 -7 -0.96 3.19
 -18 -3 7 13.09 3.9
 18 -3 -7 5.29 3.52
 18 3 -7 6.24 3.51
 18 -5 -7 17.5 3.62
 -18 -5 7 23.38 4.07
 18 -7 -7 22.09 3.96
 -18 -7 7 18.44 4.65
 -18 -7 -7 20.56 3.89
 -18 -9 7 21.01 4.45
 -18 -9 -7 21.41 4.12
 -18 -11 7 28.43 5.12
 -18 -11 -7 30.29 4.4
 -18 -13 7 12.14 4.92
 -13 -18 7 10.98 4.86
 -18 -15 7 2.05 4.7
 -15 -18 7 -0.27 4.74
 -18 -17 7 -1.55 4.78
 -17 -18 7 6.59 4.86
 19 0 -7 199.31 8.92
 -19 -2 7 120.74 6.97
 19 -2 -7 114.63 6.35
 19 2 -7 111.09 6.64
 -19 -4 7 63.28 4.76
 19 -4 -7 53.15 4.26
 19 -6 -7 17.46 3.77
 -19 -6 7 24.25 4.41
 -19 -6 -7 10.53 3.53
 -19 -8 7 10.95 4.71
 19 -8 -7 12.33 3.75
 -19 -8 -7 4.64 3.88
 -19 -10 7 4.65 4.66
 -19 -10 -7 1.38 4.11
 -19 -12 7 7.72 4.91
 -19 -12 -7 2.33 4.4
 -12 -19 7 0.19 4.65
 -19 -14 7 11.93 4.82
 -14 -19 7 9.74 4.75
 -19 -16 7 0.81 4.96
 -16 -19 7 -0.52 4.61
 -19 -18 7 -0.18 4.96
 -18 -19 7 9.45 4.62
 20 -1 -7 6.1 3.33
 20 1 -7 6.63 3.32
 -20 -3 7 11.11 3.83
 20 -3 -7 5.24 3.3
 20 3 -7 1.81 3.52
 20 -5 -7 10.46 3.62
 -20 -5 7 11.1 4.16
 -20 -7 7 27.57 4.53
 20 -7 -7 26.86 3.91
 20 -9 -7 28.79 4.07
 -20 -9 7 24.29 4.78
 -20 -9 -7 26.14 4.23
 -20 -11 7 10.78 5.01
 -20 -11 -7 24.6 4.4
 -11 -20 7 16.92 5.04
 -20 -13 7 21.05 5.09
 -13 -20 7 10.34 4.81
 -20 -13 -7 19.18 4.5
 -20 -15 7 7.29 5.05
 -15 -20 7 -2.24 4.62
 -20 -15 -7 2.97 4.47
 -20 -17 7 -5.28 4.81
 -17 -20 7 1.94 4.71
 -20 -17 -7 5.72 4.43
 -20 -19 7 -7.92 4.9
 -19 -20 7 0.63 4.54
 21 0 -7 9.59 3.25
 21 -2 -7 10.46 3.33
 21 2 -7 5.21 3.51
 -21 -4 7 5.48 3.94
 21 -4 -7 7.64 3.52
 -21 -6 7 4.01 4.09
 21 -6 -7 1.85 3.61
 21 -8 -7 4.3 3.8
 -21 -8 7 6.84 4.57
 -21 -8 -7 6.19 3.84
 21 -10 -7 8.43 4.07
 -21 -10 7 14.63 4.91
 -21 -10 -7 10.75 4.24
 -21 -12 7 10.28 4.92
 -12 -21 7 4.61 5
 -21 -12 -7 6.9 4.41
 -21 -14 7 10.68 5.04
 -14 -21 7 0.59 4.67
 -21 -14 -7 4.87 4.48
 -21 -16 7 9.14 5
 -16 -21 7 2.62 4.68
 -21 -16 -7 3.71 4.59
 -21 -18 7 4.91 4.88
 -18 -21 7 11.95 4.66
 -21 -18 -7 5.11 4.55
 -21 -20 7 5.65 4.78
 -20 -21 7 6.3 4.5
 -21 -20 -7 3.22 4.62
 22 -1 -7 3.48 3.32
 22 1 -7 6.17 3.39
 22 -3 -7 -1.11 3.38
 22 -5 -7 5.74 3.65
 -22 -5 7 -2.57 4.13
 22 -7 -7 3.96 3.77
 -22 -7 7 2.69 4.42
 -22 -7 -7 5.11 3.41
 -22 -9 7 11.38 4.68
 22 -9 -7 6.75 3.85
 -22 -9 -7 4.81 4.01
 22 -11 -7 7 4.18
 -22 -11 7 11.41 5.05
 -22 -11 -7 11.02 4.37
 -22 -13 7 13.31 5.22
 -22 -13 -7 11.47 4.62
 -13 -22 7 10.68 5.36
 -22 -15 7 -3.25 4.95
 -15 -22 7 4.87 4.58
 -22 -15 -7 5.95 4.43
 -22 -17 7 -1.16 4.93
 -17 -22 7 -0.69 4.46
 -22 -17 -7 10.69 4.45
 -19 -22 7 0.26 4.52
 -22 -19 -7 11.31 4.6
 -22 -21 7 12.95 4.62
 -21 -22 -7 0.73 4.36
 -21 -22 7 2.74 4.45
 -22 -21 -7 4.39 4.33
 23 0 -7 35.07 3.82
 23 -2 -7 18.97 3.5
 23 2 -7 20.22 3.55
 -23 -4 7 0.97 3.99
 23 -4 -7 3.38 3.35
 23 -6 -7 0.83 3.71
 -23 -6 7 1.77 4.24
 23 -8 -7 0.65 3.76
 -23 -8 7 3.97 4.57
 -23 -8 -7 -2.91 3.59
 -23 -10 7 -5.12 4.85
 23 -10 -7 -0.26 3.87
 -23 -10 -7 -3 4.19
 23 -12 -7 -0.99 4.2
 -23 -12 7 0.13 5.03
 -12 -23 7 4.22 4.62
 -23 -12 -7 2.45 4.39
 -23 -14 7 3.16 5.05
 -14 -23 7 7.19 5.29
 -23 -14 -7 -4.01 4.51
 -23 -16 7 11.18 5.14
 -16 -23 7 16.94 4.63
 -23 -16 -7 9.11 4.57
 -23 -18 7 4.69 5.3
 -18 -23 7 -1.14 4.33
 -23 -18 -7 0.69 4.49
 -23 -20 7 5.28 4.93
 -20 -23 7 8.61 4.38
 -23 -20 -7 7.31 4.36
 -22 -23 -7 7.35 4.35
 -23 -22 7 -2.03 4.43
 -22 -23 7 7.22 4.38
 -23 -22 -7 11.93 4.39
 24 -1 -7 1.44 3.28
 24 1 -7 2.16 3.32
 24 -3 -7 1.32 3.37
 24 -5 -7 1.16 3.45
 -24 -5 7 6.06 4.14
 -24 -7 7 9.31 4.42
 -24 -7 -7 10.21 3.45
 24 -9 -7 14.02 3.9
 -24 -9 7 23.17 4.76
 24 -11 -7 9.59 3.97
 -24 -11 7 11.51 5.05
 -24 -11 -7 11.27 4.36
 24 -13 -7 -2.5 4.2
 -24 -13 7 -4.44 5.06
 -24 -13 -7 9.12 4.52
 -13 -24 7 0.21 4.48
 -24 -15 7 9.61 5.11
 -15 -24 7 5.5 4.93
 -24 -15 -7 5.14 4.55
 -24 -17 7 8.63 5.08
 -17 -24 7 4.77 4.84
 -24 -17 -7 7.64 4.51
 -24 -19 -7 5.3 4.47
 -19 -24 7 3.82 4.34
 -24 -21 7 -2.93 4.9
 -21 -24 -7 -3.11 4.23
 -21 -24 7 0.22 4.19
 -24 -21 -7 0.01 4.19
 25 0 -7 18.2 3.37
 25 -2 -7 20.34 3.42
 25 -4 -7 5.35 3.27
 25 -6 -7 -6.35 3.44
 -25 -6 7 -1.71 4.11
 -25 -8 7 -5.42 4.45
 25 -8 -7 -0.02 3.77
 -25 -8 -7 3.91 3.65
 -25 -10 7 -0.72 4.83
 25 -10 -7 -1.01 3.82
 -25 -10 -7 4.77 3.92
 -25 -12 7 4.27 5.03
 25 -12 -7 5.25 3.9
 -12 -25 7 2.29 4.73
 -25 -12 -7 6.64 4.34
 25 -14 -7 8.34 4.32
 -25 -14 -7 11.84 4.61
 -14 -25 7 11.18 4.76
 -25 -16 7 16.82 5.24
 -16 -25 7 9.17 4.57
 -25 -16 -7 1.39 4.63
 -25 -18 7 1.27 4.9
 -25 -18 -7 6.67 4.45
 -18 -25 7 12.3 4.92
 -25 -20 7 11.59 4.79
 -20 -25 7 15.45 4.61
 26 -1 -7 4.85 3.17
 26 -3 -7 6.46 3.18
 26 -5 -7 -2.39 3.25
 -26 -7 7 -0.19 4.19
 26 -7 -7 -5.47 3.52
 -26 -9 7 1.61 4.55
 -26 -11 7 6.31 4.84
 -26 -11 -7 -1.22 4.08
 -26 -13 7 5.27 5.09
 -13 -26 7 2.19 4.21
 -26 -13 -7 -4.7 4.45
 -26 -15 7 -2.9 5.2
 -15 -26 7 5.81 5.09
 -26 -15 -7 2.47 4.62
 -26 -17 7 -2.92 4.96
 -17 -26 7 -3.73 4.11
 -26 -17 -7 3.38 4.63
 27 -2 -7 54.76 5.61
 -27 -6 7 12.84 4.13
 -27 -8 7 1.39 4.39
 -27 -10 7 -0.52 4.66
 -27 -12 7 6.38 4.89
 -12 -27 7 -2.59 4.11
 -27 -12 -7 -5.45 4.09
 -27 -14 7 8.68 5.07
 -14 -27 7 15.69 4.57
 -27 -14 -7 10.21 4.56
 -27 -16 7 7.86 5.16
 -27 -16 -7 16.35 4.75
 -16 -27 7 9.24 4.55
 -28 -9 7 3.2 4.4
 -28 -9 -7 -3.66 3.51
 -28 -11 7 -3.84 4.67
 -28 -13 7 2.63 4.89
 -28 -13 -7 -2.24 4.35
 -13 -28 7 -0.94 4.16
 -28 -15 7 9 5.05
 -28 -15 -7 -3.37 4.46
 -15 -28 7 4.6 4.9
 -29 -8 7 1.72 4.11
 -29 -10 7 4.28 4.41
 -29 -12 7 -6.12 4.58
 -12 -29 7 -3.47 4.18
 -30 -9 7 -1.11 4.16
 -30 -11 7 8.05 4.54
 -11 -30 7 0.48 4.63
 1 -1 8 1.3 2.51
 -1 1 -8 -2.28 2.25
 1 1 -8 1.71 2.86
 -1 -1 8 3.25 2.87
 2 2 -8 100.33 5.5
 -2 -2 8 87.95 5.79
 -2 2 -8 87.49 4.2
 1 -3 8 -0.65 3.06
 1 3 -8 0.98 3.08
 -3 1 -8 1.23 2.12
 -3 -1 8 -2.41 3
 3 -1 8 0.74 2.3
 -1 -3 8 2.66 3.35
 3 1 -8 -1.08 3.1
 -3 -3 8 -3.46 3.37
 3 3 -8 1.04 3.53
 3 -3 8 -1.4 2.84
 4 0 -8 184.51 8.44
 -4 0 8 175.96 8.39
 0 4 -8 191.2 8.46
 4 2 -8 175.33 8.2
 4 4 -8 145.25 8.25
 -4 -4 8 178.45 8.38
 5 -1 -8 5.23 3.44
 -5 -1 8 -1.04 3.67
 1 -5 8 -3.01 4.02
 5 1 -8 -0.65 3.57
 -1 -5 8 0.37 3.98
 -5 -3 8 -5.72 4.02
 3 5 -8 -0.12 3.84
 3 -5 8 0.55 3.71
 5 3 -8 -6.88 3.89
 -3 -5 8 4.05 4.66
 -5 -5 8 3.3 3.95
 5 5 -8 -2.45 4.31
 -6 0 8 5.59 3.7
 0 -6 8 17.5 4.72
 6 0 -8 8.29 3.72
 -6 -2 8 20.44 3.92
 6 2 -8 25.78 3.73
 -2 -6 8 29.23 4.5
 6 4 -8 8.34 3.97
 -4 -6 8 8.01 4.53
 6 -4 8 10.06 2.74
 -6 -6 8 19.35 4.6
 -7 -1 8 -6.28 3.87
 7 -1 -8 -1.8 4.01
 7 1 -8 -8.01 3.86
 -1 -7 8 7.5 4.9
 -7 -3 8 25.12 4.38
 7 3 -8 20.3 3.85
 -3 -7 8 19.65 4.77
 -7 -5 8 -3.97 4.32
 7 5 -8 7.7 4.62
 -5 -7 8 0.82 4.42
 -7 -7 8 4.23 4.8
 8 0 -8 0.57 3.66
 -8 0 8 7.45 3.84
 8 -2 -8 31.69 4.12
 -8 -2 8 29.37 4.05
 8 2 -8 32.51 3.88
 -8 -4 8 -5.24 3.98
 -4 -8 8 3.17 4.59
 8 4 -8 1.68 4.23
 -8 -6 8 2.86 4.17
 8 6 -8 4.85 4.39
 -6 -8 8 -0.3 5.05
 -8 -8 8 20.73 4.96
 -9 -1 8 -5.2 3.67
 9 -1 -8 4.12 3.8
 9 1 -8 1.01 3.65
 -9 -3 8 -0.31 4.21
 9 3 -8 -5.85 3.86
 -9 -5 8 4.86 3.97
 -5 -9 8 -3.04 5.49
 9 5 -8 -1.3 4.31
 -9 -7 8 -0.63 4.59
 -7 -9 8 8 4.53
 -9 -9 8 -2.67 4.74
 -10 0 8 65.66 4.58
 10 0 -8 52.67 4.43
 10 -2 -8 64.54 4.6
 -10 -2 8 66.59 4.55
 10 2 -8 56.31 4.35
 -10 -4 8 25.52 4.43
 10 4 -8 22.25 4.24
 -10 -6 8 -2.59 4.13
 -6 -10 8 -2.1 4.71
 10 6 -8 2.99 4.3
 -10 -8 8 5.77 4.42
 -8 -10 8 17.25 5.02
 -10 -10 8 4.81 4.81
 11 -1 -8 -1.23 3.76
 -11 -1 8 -6 3.73
 11 1 -8 1.65 3.57
 11 -3 -8 0.94 3.69
 -11 -3 8 0.38 3.9
 11 3 -8 6.45 3.71
 -11 -5 8 -6.23 4.07
 11 5 -8 -2.4 4.1
 -11 -7 8 -2.17 4.13
 -7 -11 8 1.82 4.85
 -11 -9 8 6.87 4.4
 -9 -11 8 4.9 5.15
 -11 -11 8 -0.96 4.47
 12 0 -8 97.13 5.4
 -12 -2 8 92.51 5.38
 12 -2 -8 85.75 5.17
 -12 -4 8 11.14 4.13
 12 -4 -8 15.2 3.66
 12 4 -8 15.86 4.08
 -12 -6 8 6.66 4.3
 -12 -8 8 1.2 4.31
 -8 -12 8 4.56 5.14
 -12 -10 8 -0.34 4.47
 -10 -12 8 0.66 5.05
 -12 -12 8 6.75 4.61
 13 -1 -8 1.54 3.63
 -13 -1 8 -5.55 3.73
 13 1 -8 9.75 3.53
 13 -3 -8 -2.06 3.71
 -13 -3 8 7.36 3.9
 13 3 -8 -2.59 3.59
 -13 -5 8 5.55 4.03
 -13 -7 8 1.29 4.17
 -7 -13 8 3.37 5.28
 -9 -13 8 13.61 5.4
 -13 -11 8 3.82 4.73
 -11 -13 8 -2.82 4.71
 -13 -13 8 -2.32 4.71
 14 0 -8 111.95 6.5
 -14 -2 8 86.56 6.27
 14 -2 -8 92.61 6.23
 14 2 -8 87.34 6.29
 -14 -4 8 47.76 4.4
 14 -4 -8 41.76 4.14
 14 4 -8 44.07 4.36
 -14 -6 8 11 4.29
 -14 -8 8 0.96 4.37
 -8 -14 8 -7.98 4.86
 -14 -10 8 6.09 4.74
 -10 -14 8 -3.46 4.7
 -14 -12 8 12.98 4.81
 -12 -14 8 8.64 4.91
 -14 -14 8 7.14 5.05
 -15 -1 8 4.07 3.69
 15 -1 -8 4.85 3.45
 15 1 -8 -1.05 3.5
 15 -3 -8 -0.91 3.52
 -15 -3 8 4.34 3.83
 15 3 -8 10.76 3.69
 -15 -5 8 4.97 4.01
 15 5 -8 4.51 4.02
 -15 -5 -8 0.99 3.28
 -15 -7 8 2.23 4.38
 -15 -9 8 10.67 4.48
 -9 -15 8 8.76 5.6
 -15 -11 8 -3.36 4.51
 -11 -15 8 -0.08 5.18
 -15 -13 8 11.7 4.8
 -13 -15 8 2.69 4.87
 -15 -15 8 -2.38 4.54
 16 0 -8 18.8 3.51
 -16 -2 8 11.23 3.74
 16 -2 -8 7.9 3.61
 16 2 -8 5.96 3.42
 -16 -4 8 4.34 3.93
 16 -4 -8 0.97 3.5
 16 4 -8 -1.13 3.76
 16 -6 -8 -2.46 3.79
 -16 -6 8 2.93 4.28
 -16 -6 -8 -0.81 3.5
 -16 -8 8 -4.71 4.24
 -10 -16 8 6.67 5.03
 -16 -12 8 8.8 4.67
 -12 -16 8 6.11 4.95
 -16 -14 8 3.16 4.54
 -14 -16 8 -2.01 5.17
 -16 -16 8 4.85 5.03
 17 -1 -8 -1.68 3.34
 17 1 -8 -1.16 3.38
 17 -3 -8 6.88 3.59
 -17 -3 8 5.96 3.89
 17 3 -8 5.09 3.59
 -17 -5 8 0.41 4.02
 -17 -5 -8 3.55 3.13
 17 5 -8 -6.57 3.83
 17 -7 -8 -1.51 3.57
 -17 -7 8 10.22 4.17
 -17 -7 -8 0.8 3.72
 -17 -9 8 -2.25 4.54
 -9 -17 8 3.66 4.93
 -17 -11 8 1.29 4.76
 -11 -17 8 -4.87 4.62
 -17 -13 8 0.91 4.67
 -13 -17 8 0.76 4.63
 -17 -15 8 10.59 5.21
 -15 -17 8 -0.75 4.86
 -17 -17 8 -9.78 4.89
 18 0 -8 28.18 3.59
 -18 -2 8 12.53 3.83
 18 -2 -8 10.78 3.45
 18 2 -8 12.51 3.53
 18 -4 -8 -0.9 3.52
 -18 -4 8 6.16 3.89
 18 4 -8 4.85 3.65
 18 -6 -8 2.21 3.57
 -18 -6 8 -3.85 4.15
 -18 -6 -8 -0.63 3.5
 -18 -8 8 2.54 4.54
 -18 -8 -8 2.6 3.86
 -18 -10 8 2.38 4.73
 -18 -10 -8 2.27 3.96
 -10 -18 8 1.98 4.76
 -18 -12 8 0.92 4.8
 -12 -18 8 0.62 5.04
 -18 -14 8 -0.83 5.06
 -14 -18 8 -4.05 4.93
 -18 -16 8 2.33 4.76
 -16 -18 8 -0.65 4.8
 -18 -18 8 1.65 4.63
 19 -1 -8 8.99 3.39
 19 1 -8 4.78 3.32
 -19 -3 8 -1.6 3.83
 19 -3 -8 -0.63 3.56
 19 3 -8 -0.47 3.55
 19 -5 -8 -1.64 3.69
 -19 -5 8 2.05 4.07
 -19 -7 8 -7.42 4.28
 19 -7 -8 2.6 3.65
 -19 -7 -8 3.52 3.76
 -19 -9 8 2.84 4.61
 -19 -9 -8 -2.01 3.89
 -19 -11 8 10.48 4.7
 -11 -19 8 7.53 4.97
 -19 -11 -8 1.01 4.23
 -19 -13 8 -3.49 4.84
 -13 -19 8 -2.77 5.07
 -19 -15 8 7.18 4.88
 -15 -19 8 3.03 5.17
 -19 -17 8 -7.57 4.98
 -17 -19 8 -3.17 5.02
 -19 -19 8 -2.91 4.82
 20 0 -8 -0.76 3.3
 20 -2 -8 -1.56 3.37
 20 2 -8 3.29 3.58
 20 -4 -8 -0.72 3.65
 -20 -4 8 -0.07 3.94
 20 4 -8 -0.64 3.7
 -20 -6 8 -1.06 4.29
 20 -6 -8 2.46 3.65
 -20 -6 -8 -1.07 3.24
 -20 -8 8 1.54 4.67
 20 -8 -8 -5.16 3.94
 -20 -8 -8 0.04 3.84
 -10 -20 8 -6.07 4.88
 -20 -10 -8 4.38 4.16
 -20 -12 8 2.79 5.03
 -12 -20 8 2.76 5.07
 -20 -12 -8 5.4 4.32
 -20 -14 8 -6.73 4.81
 -20 -14 -8 3.48 4.49
 -14 -20 8 -2.96 5
 -20 -16 8 4.22 5.08
 -16 -20 8 4.41 5.36
 -20 -18 8 14.27 4.97
 -18 -20 8 11.86 5.21
 -20 -20 8 2.26 4.97
 21 -1 -8 2.13 3.36
 21 1 -8 1.3 3.45
 -21 -3 8 -7.45 3.89
 21 -3 -8 -4.45 3.31
 21 3 -8 8.74 3.65
 -21 -5 8 1.22 4.23
 21 -5 -8 -2.07 3.73
 21 -7 -8 -2.65 3.79
 -21 -7 8 0.88 4.52
 -21 -7 -8 1.69 3.54
 21 -9 -8 3.04 4.11
 -21 -9 8 -4.77 4.68
 -21 -9 -8 0.53 3.97
 -21 -11 8 1.1 5.01
 -11 -21 8 0.89 4.86
 -21 -11 -8 8.7 4.29
 -21 -13 8 -1.27 5.03
 -13 -21 8 3.85 4.93
 -21 -13 -8 10.31 4.48
 -21 -15 8 8.13 5.27
 -21 -15 -8 8.06 4.49
 -15 -21 8 -0.97 5.19
 -21 -17 -8 -1.17 4.51
 -17 -21 8 4.24 5.29
 -21 -19 8 2.41 4.76
 -21 -19 -8 1.45 4.42
 -19 -21 8 8.73 5.12
 -21 -21 8 2.21 5.02
 22 0 -8 8.27 3.37
 22 -2 -8 3.61 3.4
 22 2 -8 0.84 3.49
 -22 -4 8 0.5 3.97
 22 -4 -8 -2.62 3.47
 22 -6 -8 7.44 3.79
 -22 -6 8 0.46 4.32
 22 -8 -8 -0.71 3.87
 -22 -8 8 -3.38 4.6
 -22 -8 -8 3.62 3.73
 22 -10 -8 -0.47 4.16
 -22 -10 8 -5.27 4.93
 -22 -10 -8 7.42 4.14
 -22 -12 8 -5.87 4.84
 -22 -12 -8 1.49 4.33
 -12 -22 8 1.78 4.79
 -22 -14 8 7.62 5.08
 -22 -14 -8 2.12 4.38
 -14 -22 8 2.96 4.83
 -22 -16 8 -4.55 5.01
 -16 -22 8 0.45 5.05
 -22 -16 -8 5.17 4.41
 -22 -18 8 7.5 5.07
 -18 -22 8 2.76 5.08
 -22 -18 -8 -5.37 4.46
 -22 -20 8 1.3 4.81
 -22 -20 -8 -3.53 4.39
 -20 -22 8 6.42 4.95
 -22 -22 -8 10.1 4.38
 -22 -22 8 0.98 4.97
 23 -1 -8 -3.56 3.31
 23 1 -8 0.78 3.39
 23 -3 -8 5.69 3.46
 23 -5 -8 6.17 3.62
 -23 -5 8 6 4.1
 23 -7 -8 4.42 3.86
 -23 -7 8 1.85 4.42
 -23 -7 -8 -4.36 3.38
 23 -9 -8 -0.25 3.93
 -23 -9 8 0.01 4.71
 -23 -9 -8 -0.49 3.91
 23 -11 -8 0.41 4.25
 -23 -11 8 2.36 4.92
 -23 -11 -8 2.7 4.27
 -11 -23 8 -2.52 4.85
 -23 -13 8 -2.42 4.99
 -23 -13 -8 2.87 4.45
 -13 -23 8 0.73 4.93
 -23 -15 8 6.29 5.03
 -23 -15 -8 5.05 4.53
 -15 -23 8 0.77 4.45
 -23 -17 8 2.62 5.2
 -23 -17 -8 -5.48 4.35
 -17 -23 8 1.36 4.89
 -23 -19 8 0.83 5
 -19 -23 8 11.9 5
 -23 -19 -8 7.78 4.29
 -23 -21 8 12.18 4.76
 -23 -21 -8 0.99 4.36
 -21 -23 8 -9.32 4.78
 24 0 -8 2.56 3.45
 24 -2 -8 6.42 3.31
 24 2 -8 3 3.4
 24 -4 -8 0.35 3.47
 -24 -6 8 -7.64 4.27
 24 -6 -8 -2.06 3.7
 -24 -8 8 0.23 4.57
 24 -8 -8 -3.58 3.87
 24 -10 -8 -5.77 3.97
 -24 -10 8 5.13 4.73
 -24 -10 -8 1.71 4.06
 24 -12 -8 6.03 4.3
 -24 -12 8 1.67 5.04
 -24 -12 -8 6.77 4.38
 -12 -24 8 2.3 4.51
 -24 -14 8 4.41 5.31
 -14 -24 8 1.75 5.22
 -24 -14 -8 2.56 4.51
 -24 -16 8 1.37 5.2
 -16 -24 8 0.76 4.32
 -24 -18 8 -2.25 4.88
 -24 -18 -8 3.91 4.37
 -18 -24 8 4.99 4.66
 -24 -20 8 2.16 4.66
 -20 -24 8 -6.29 4.75
 -24 -20 -8 5.73 4.37
 25 -1 -8 1.83 3.41
 25 1 -8 -3.13 3.35
 25 -3 -8 1.33 3.46
 25 -5 -8 1.04 3.45
 25 -7 -8 2.84 3.79
 -25 -7 8 2.26 4.43
 25 -9 -8 2.96 3.85
 -25 -9 8 -3.26 4.69
 -25 -9 -8 4.63 3.75
 -25 -11 8 -2.31 4.87
 25 -11 -8 -1.13 4
 -11 -25 8 -3.88 4.99
 -25 -11 -8 -0.04 4.11
 -25 -13 8 -5.06 5.12
 25 -13 -8 4.29 4.3
 -25 -13 -8 1.65 4.45
 -13 -25 8 -3.64 4.38
 -25 -15 8 -1.22 5.13
 -15 -25 8 8.47 5.01
 -25 -15 -8 -2.77 4.51
 -25 -17 8 2.03 4.95
 -17 -25 8 7.58 4.34
 -25 -17 -8 3.15 4.4
 -25 -19 8 -3.73 4.83
 -25 -19 -8 1.91 4.42
 -19 -25 8 2.7 4.46
 26 0 -8 6.94 3.25
 26 -2 -8 10.1 3.4
 26 -4 -8 1.55 3.42
 26 -6 -8 -7.2 3.56
 -26 -6 8 -1.03 4.21
 26 -8 -8 -0.79 3.94
 -26 -8 8 0.23 4.52
 -26 -10 8 2.71 4.78
 26 -10 -8 5.48 4.39
 -26 -10 -8 7.26 3.91
 26 -12 -8 -1.11 6.42
 -26 -12 8 -4.05 5.01
 -12 -26 8 -0.59 4.51
 -26 -12 -8 3.36 4.29
 -26 -14 8 10.27 5.16
 -26 -14 -8 3 4.49
 -14 -26 8 2.13 4.49
 -26 -16 8 1.19 5.06
 -26 -16 -8 9.8 4.56
 -16 -26 8 2.67 4.68
 -26 -18 8 -3.14 4.88
 -18 -26 8 1.88 4.36
 -26 -18 -8 -2.89 4.4
 27 -1 -8 8.38 3.19
 27 -3 -8 -1.61 3.63
 -27 -7 8 3.63 4.29
 -27 -9 8 -3.12 4.53
 -27 -11 8 -2.64 4.72
 -27 -11 -8 -1.79 3.9
 -11 -27 8 -7.44 4.33
 -27 -13 8 -2.65 5.03
 -13 -27 8 7.75 4.25
 -27 -13 -8 5.7 4.34
 -27 -15 8 -1.37 5.05
 -15 -27 8 6.85 4.77
 -27 -15 -8 5.33 4.56
 -27 -17 8 4.96 5.09
 -17 -27 8 1.26 4.26
 -27 -17 -8 12.69 4.58
 -28 -8 8 -0.35 4.34
 -28 -10 8 -0.67 4.63
 -28 -12 8 1.58 4.88
 -28 -12 -8 3.38 4.1
 -12 -28 8 10.47 4.12
 -28 -14 8 0.62 4.95
 -28 -14 -8 2.47 4.4
 -14 -28 8 8.93 4.4
 -29 -9 8 -1.19 4.23
 -29 -11 8 -1.19 4.64
 -11 -29 8 3.55 4.03
 -29 -13 8 12.94 4.84
 -13 -29 8 4.06 4.36
 -30 -8 8 -7.83 4.23
 -30 -10 8 -3.12 4.32
 0 -1 9 -1.89 3.15
 -1 0 -9 5.6 2.39
 1 0 -9 4.88 2.82
 1 -2 9 5.75 2.91
 -2 -1 9 4.99 3.37
 1 2 -9 9.69 2.77
 -1 2 -9 3.6 2.42
 2 1 -9 8.73 2.93
 -1 -2 9 6.19 3.24
 3 0 -9 9.46 3.34
 0 -3 9 16.34 3.38
 -3 0 9 14.41 3.48
 -3 -2 9 23.11 3.93
 2 -3 9 26.2 3.01
 -3 2 -9 23.48 2.6
 -2 -3 9 25.99 3.53
 3 2 -9 14.73 3.23
 3 -2 9 17.25 2.75
 -4 1 -9 0.33 2.19
 1 -4 9 4.93 3.51
 -4 -1 9 -1.17 3.91
 1 4 -9 4.73 3.48
 4 -1 -9 5.34 3.53
 4 1 -9 1.5 3.25
 -1 -4 9 -1.95 3.62
 -4 3 -9 24.74 2.96
 3 -4 9 26.07 3.25
 -4 -3 9 22.11 3.95
 3 4 -9 21.15 3.82
 4 3 -9 20.57 3.89
 4 -3 9 30.51 2.88
 -3 -4 9 27.41 4.01
 0 -5 9 188.39 8.52
 -5 0 9 162.53 8.49
 -5 2 -9 105.67 5.03
 2 5 -9 97.63 7.02
 2 -5 9 109.35 6.61
 -2 -5 9 106.36 6.96
 5 2 -9 91.95 6.62
 4 -5 9 67.38 5.37
 -5 -4 9 58.73 4.55
 -4 -5 9 50.21 4.54
 5 -4 9 64.42 4.63
 5 4 -9 52.15 4.6
 -6 -1 9 4.74 3.86
 6 -1 -9 0.07 3.97
 1 -6 9 -2.39 4.13
 6 1 -9 1.62 3.59
 -1 -6 9 -8.59 4.32
 3 -6 9 38.76 4.28
 -6 -3 9 24.55 4.14
 6 3 -9 31.31 4.12
 6 -3 9 35.53 2.6
 -3 -6 9 28.42 4.31
 -6 -5 9 5.12 4.35
 5 6 -9 6.58 4.86
 6 -5 9 9.97 3.16
 -5 -6 9 4.51 4.38
 6 5 -9 5.36 4.49
 7 0 -9 24.15 3.87
 -7 0 9 32.31 4.1
 -7 -2 9 32.77 4.21
 7 -2 -9 33.23 4.05
 -2 -7 9 47.11 5.33
 7 2 -9 38.38 4.23
 -7 -4 9 120.11 7.32
 -4 -7 9 116.53 7.89
 7 4 -9 109.46 7.48
 -7 -6 9 16.52 4.75
 7 6 -9 14.43 4.77
 -6 -7 9 17.26 4.57
 8 -1 -9 19.77 4.03
 -8 -1 9 16.89 3.94
 8 1 -9 18.3 4.01
 -1 -8 9 17 4.75
 -8 -3 9 16.26 4.38
 8 3 -9 9.62 4.08
 -3 -8 9 13.54 4.69
 -8 -5 9 0.42 4.27
 8 5 -9 9.03 4.43
 -5 -8 9 3.38 5.25
 -8 -7 9 1.29 4.78
 -7 -8 9 11.71 4.55
 9 0 -9 173.25 8.36
 -9 0 9 170.91 8.62
 -9 -2 9 188.49 9.3
 9 -2 -9 190.59 9.26
 -9 -4 9 39.78 4.43
 9 4 -9 39.98 4.41
 -4 -9 9 37.71 5.47
 -9 -6 9 26.14 4.49
 9 6 -9 28.88 4.52
 -6 -9 9 32.97 5.4
 -9 -8 9 -3.47 4.36
 -8 -9 9 2.7 4.51
 -10 -1 9 2.7 3.71
 10 -1 -9 -2.73 3.74
 10 1 -9 8.01 3.81
 -10 -3 9 -5.59 4.14
 10 -3 -9 0.87 3.82
 10 3 -9 -3.79 3.8
 -3 -10 9 -1.51 5.73
 -10 -5 9 0.01 4.11
 10 5 -9 -2.41 4.1
 -5 -10 9 8.9 5.07
 -7 -10 9 2.43 4.67
 -10 -9 9 58.61 5.3
 -9 -10 9 54.52 5.36
 11 0 -9 17.67 3.79
 11 -2 -9 80.03 5.01
 -11 -2 9 77.36 6.53
 11 2 -9 93.39 6.13
 -11 -4 9 -1.98 4.21
 11 4 -9 -4.38 3.93
 -4 -11 9 0.78 5.47
 -11 -6 9 14.34 4.24
 -6 -11 9 21.12 5.86
 11 6 -9 7.99 4.58
 -11 -8 9 -2.69 4.33
 -8 -11 9 -4.69 5.1
 -11 -10 9 5.77 4.64
 -10 -11 9 7.31 4.51
 12 -1 -9 4.72 3.75
 -12 -1 9 0.1 3.78
 12 1 -9 1 3.47
 12 -3 -9 30.77 3.88
 12 3 -9 27.05 3.87
 -12 -5 9 8.38 4.29
 -5 -12 9 4.91 5.59
 12 5 -9 9.35 4.12
 -12 -7 9 7.62 4.53
 -7 -12 9 0.49 5.48
 -12 -9 9 3.23 4.31
 -9 -12 9 0.42 5.06
 -12 -11 9 28.87 5.07
 -11 -12 9 19.36 4.74
 13 0 -9 11.68 3.52
 -13 -2 9 67.9 4.58
 13 -2 -9 50.38 4.3
 13 2 -9 61.31 4.46
 -13 -4 9 5.6 4.02
 13 -4 -9 1.76 3.71
 13 4 -9 3 3.81
 -13 -6 9 20.57 4.27
 13 6 -9 22.37 4.48
 -6 -13 9 21.58 5.33
 -13 -8 9 2.09 4.39
 -8 -13 9 -1.3 5.08
 -13 -10 9 29.25 4.73
 -10 -13 9 35.01 5
 -13 -12 9 -5.73 4.69
 -12 -13 9 3.3 4.64
 14 -1 -9 -5.17 3.59
 -14 -1 9 -2.23 3.72
 14 1 -9 -6.03 3.47
 14 -3 -9 -0.81 3.6
 14 3 -9 2.01 3.61
 14 -5 -9 3.32 3.7
 -14 -5 9 -0.69 4.19
 14 5 -9 -0.42 4.01
 -14 -7 9 4.78 4.24
 -7 -14 9 -0.23 4.9
 -14 -9 9 8.41 4.54
 -9 -14 9 -1.24 4.9
 -14 -11 9 -1.93 4.38
 -11 -14 9 3.09 4.77
 -14 -13 9 5.92 4.85
 -13 -14 9 10.86 5.02
 15 0 -9 30.77 3.78
 -15 -2 9 14.92 3.74
 15 -2 -9 7.26 3.63
 15 2 -9 5.96 3.64
 15 -4 -9 11.45 3.71
 -15 -4 9 3.37 3.91
 15 4 -9 6.74 3.91
 -15 -6 9 -5.29 4.25
 15 6 -9 -1.7 4.22
 -15 -8 9 0.11 4.22
 -8 -15 9 7.65 5.23
 -15 -10 9 3.96 4.55
 -10 -15 9 4.06 5.22
 -15 -12 9 -0.24 4.53
 -12 -15 9 10.39 5.07
 -14 -15 9 6.7 4.98
 16 -1 -9 1.82 3.58
 16 1 -9 3.04 3.44
 -16 -3 9 13.78 4.02
 16 -3 -9 11.78 3.75
 16 3 -9 14.01 3.69
 -16 -5 9 10.56 4.11
 16 -5 -9 5.41 3.72
 16 5 -9 10.11 3.96
 -16 -5 -9 3.28 3.29
 -16 -7 9 8.22 4.35
 -9 -16 9 1.49 5.12
 -16 -11 9 18.88 4.84
 -11 -16 9 20.25 4.94
 -16 -13 9 13.88 4.75
 -13 -16 9 6.21 4.77
 -15 -16 9 11.48 4.94
 17 0 -9 16.17 3.44
 -17 -2 9 18.35 3.94
 17 -2 -9 3.36 3.67
 17 2 -9 10.24 3.64
 -17 -4 9 9.61 3.93
 17 -4 -9 18.59 3.8
 17 4 -9 13.36 3.93
 -17 -6 9 -2.37 4.14
 17 -6 -9 2.65 3.9
 -17 -8 9 -2.04 4.45
 -8 -17 9 7.18 5.28
 -17 -10 9 3.18 4.74
 -10 -17 9 7.12 4.72
 -17 -12 9 7.13 4.84
 -12 -17 9 6.38 4.88
 -17 -14 9 -0.68 4.55
 -14 -17 9 -2.37 5.01
 -17 -16 9 1.65 5.04
 18 -1 -9 0.6 3.48
 18 1 -9 8.6 3.46
 -18 -3 9 8.58 3.87
 18 -3 -9 3.69 3.68
 18 3 -9 3.49 3.59
 -18 -5 9 1.07 4.04
 18 -5 -9 2.09 3.79
 18 5 -9 1.37 3.82
 -18 -7 9 6.86 4.29
 18 -7 -9 9.74 3.89
 -18 -7 -9 5.34 3.7
 -18 -9 9 6.03 4.65
 -18 -9 -9 0.02 3.83
 -9 -18 9 -8.85 4.67
 -18 -11 9 -6.02 4.67
 -11 -18 9 14.67 5.21
 -18 -13 9 -5.18 4.81
 -13 -18 9 -8.18 5.3
 -18 -15 9 1.45 4.96
 -15 -18 9 -9.12 5.4
 -18 -17 9 -1.12 4.68
 -17 -18 9 -5.76 5
 19 0 -9 56.14 4.2
 19 -2 -9 32.34 3.66
 19 2 -9 25.82 3.84
 19 -4 -9 17.32 3.82
 -19 -4 9 16.45 4.03
 19 4 -9 16.89 3.91
 19 -6 -9 3.95 3.64
 -19 -6 9 -3.59 4.28
 -19 -6 -9 -1.93 3.32
 19 -8 -9 0.33 3.97
 -19 -8 -9 0.82 3.77
 -19 -10 9 4.25 4.67
 -19 -10 -9 7.2 4.12
 -10 -19 9 6.33 4.93
 -19 -12 9 1.05 4.83
 -12 -19 9 -2.99 5.41
 -19 -14 9 0.91 5.18
 -14 -19 9 3.57 5.1
 -19 -16 9 10.19 4.96
 -16 -19 9 4.31 4.92
 -19 -18 9 6.95 4.98
 -18 -19 9 8.83 4.87
 20 -1 -9 11.97 3.52
 -20 -3 9 1.75 3.94
 20 -3 -9 6.84 3.59
 20 3 -9 1.92 3.68
 20 -5 -9 7.41 3.67
 -20 -5 9 1.45 4.11
 -20 -7 9 4.06 4.4
 20 -7 -9 4.43 3.76
 20 -9 -9 4.65 4.12
 -20 -9 9 3.05 4.76
 -20 -9 -9 11.12 4.05
 -9 -20 9 9.83 4.99
 -20 -11 -9 3.47 4.2
 -11 -20 9 5.82 5.24
 -20 -13 9 8.45 4.97
 -13 -20 9 4.24 5.45
 -20 -15 9 -3.11 4.88
 -15 -20 9 2.12 4.89
 -20 -17 9 5.02 5.02
 -17 -20 9 6.5 4.64
 -20 -19 9 5.75 5.17
 -19 -20 9 6.65 4.62
 21 0 -9 7.67 3.51
 21 -2 -9 -1.28 3.47
 21 2 -9 5.43 3.72
 -21 -4 9 -0.11 4.01
 21 -4 -9 7.35 3.72
 21 4 -9 0.19 3.7
 -21 -6 9 0.79 4.37
 21 -6 -9 3.65 3.88
 21 -8 -9 0.33 3.82
 -21 -8 9 1.18 4.55
 -21 -8 -9 2.51 3.69
 -21 -10 9 9.43 4.85
 21 -10 -9 9.54 4.14
 -10 -21 9 2.29 4.96
 -21 -10 -9 4.57 4.16
 -21 -12 9 4.84 5.03
 -21 -12 -9 1.86 4.28
 -12 -21 9 -2.53 5.29
 -21 -14 9 -1.45 5.07
 -21 -14 -9 -3.44 4.36
 -14 -21 9 9.96 5.22
 -21 -16 9 -0.24 4.95
 -16 -21 9 9.24 4.72
 -21 -16 -9 1.04 4.46
 -21 -18 9 8.49 4.92
 -18 -21 9 2.16 4.65
 -21 -20 9 8.64 4.71
 -20 -21 9 -7.13 4.58
 22 -1 -9 -0.53 3.47
 22 1 -9 0.24 3.58
 22 -3 -9 -0.77 3.55
 22 3 -9 -1.49 3.63
 22 -5 -9 -8.36 3.83
 -22 -5 9 -4.39 4.12
 -22 -7 9 3.8 4.42
 22 -7 -9 -1.41 3.88
 -22 -7 -9 6.13 3.28
 22 -9 -9 2.16 3.95
 -22 -9 9 -0.82 4.8
 -22 -9 -9 3.08 4.05
 22 -11 -9 2.73 4.19
 -22 -11 9 -2.41 4.87
 -22 -11 -9 3.07 4.21
 -11 -22 9 2.56 4.88
 -22 -13 9 0.78 5.14
 -13 -22 9 3.38 5.23
 -22 -13 -9 4.65 4.3
 -22 -15 9 2.84 4.9
 -22 -15 -9 2.6 4.41
 -15 -22 9 -0.63 4.94
 -22 -17 9 4.33 5.09
 -17 -22 9 -1.13 4.49
 -22 -17 -9 -4.54 4.44
 -22 -19 9 7.78 5.04
 -22 -19 -9 8.03 4.49
 -22 -21 9 7.96 4.66
 -21 -22 9 -0.71 4.61
 -22 -21 -9 -2.54 4.26
 23 0 -9 21.69 3.64
 23 -2 -9 12.2 3.55
 23 2 -9 5.66 3.55
 23 -4 -9 10.48 3.61
 -23 -4 9 3.95 4.05
 23 -6 -9 4.49 3.88
 -23 -6 9 1.09 4.32
 23 -8 -9 4.03 3.98
 -23 -8 9 0.4 4.62
 -23 -10 9 -6.41 4.85
 23 -10 -9 -8.23 3.94
 -23 -10 -9 -1.97 4.05
 -10 -23 9 -4.16 5.07
 23 -12 -9 -6.13 4.23
 -23 -12 9 4.92 5.09
 -12 -23 9 -0.44 4.75
 -23 -12 -9 -1.89 4.23
 -23 -14 9 -0.64 5.25
 -23 -14 -9 12.17 4.55
 -14 -23 9 10.09 4.96
 -23 -16 9 2.37 5.22
 -23 -16 -9 5.55 4.42
 -16 -23 9 4.37 4.72
 -23 -18 9 4.62 4.92
 -18 -23 9 6.8 4.41
 -23 -18 -9 9.61 4.56
 -23 -20 9 7.09 5.07
 -23 -20 -9 4.09 4.42
 -20 -23 9 -0.39 4.53
 -23 -22 9 11.35 4.6
 -22 -23 9 -1.36 4.55
 -23 -22 -9 4.05 4.3
 24 -1 -9 3.14 3.39
 24 1 -9 1.06 3.44
 24 -3 -9 -2.2 3.53
 -24 -5 9 -1.5 4.17
 24 -7 -9 5.97 4.05
 -24 -7 9 4.91 4.46
 24 -9 -9 5.93 4.04
 -24 -9 9 8.56 4.83
 24 -11 -9 2.35 4.01
 -24 -11 9 -1.34 4.97
 -11 -24 9 8.11 4.82
 -24 -11 -9 4.83 4.23
 -24 -13 9 7.54 5.19
 24 -13 -9 3.2 4.32
 -13 -24 9 0.48 4.78
 -24 -13 -9 8.44 4.42
 -24 -15 9 1.86 5.13
 -15 -24 9 0.63 4.8
 -24 -15 -9 -5.08 4.39
 -24 -17 9 -5.49 4.88
 -17 -24 9 8.23 4.78
 -24 -17 -9 -4.04 4.33
 -24 -19 9 0.32 4.84
 -24 -19 -9 2.07 4.26
 -24 -21 9 1.46 4.54
 -21 -24 9 -3 4.43
 -24 -21 -9 1.74 4.23
 25 0 -9 23.74 3.73
 25 -2 -9 22.45 3.56
 25 2 -9 19.68 3.62
 25 -4 -9 19.22 3.67
 25 -6 -9 9.58 3.73
 -25 -6 9 19.33 4.31
 25 -8 -9 2.19 3.99
 -25 -8 9 -0.6 4.58
 -25 -10 9 1.5 4.8
 25 -10 -9 3.42 4.01
 -10 -25 9 -8.58 5.06
 -25 -10 -9 3.84 3.8
 -25 -12 9 -4.64 5.11
 25 -12 -9 1.19 3.97
 -25 -12 -9 3.82 4.29
 -12 -25 9 2.81 4.41
 -25 -14 9 -3.02 5.11
 25 -14 -9 2.45 4.39
 -14 -25 9 10.54 4.78
 -25 -14 -9 4.05 4.47
 -25 -16 9 -3.02 4.94
 -16 -25 9 9.04 4.68
 -25 -16 -9 6.5 4.54
 -25 -18 9 6.69 4.92
 -18 -25 9 -1.41 4.8
 -25 -18 -9 7.93 4.52
 26 -1 -9 -3.94 3.42
 26 1 -9 2.86 3.39
 26 -3 -9 -2.56 3.34
 26 -5 -9 9.46 3.56
 -26 -7 9 8.98 4.38
 -26 -9 9 5.13 4.68
 26 -9 -9 0.98 4.05
 -26 -11 9 0.25 5.02
 -11 -26 9 1.8 4.73
 -26 -11 -9 9.23 4.08
 26 -13 -9 2.36 4.02
 -26 -13 9 7.57 5.19
 -13 -26 9 5.77 4.35
 -26 -13 -9 6.5 4.31
 26 -15 -9 -3.08 4.39
 -26 -15 9 4.72 5.34
 -26 -15 -9 1.62 4.55
 -15 -26 9 7.51 4.98
 -26 -17 -9 7.51 4.51
 -17 -26 9 6.02 4.37
 27 0 -9 16.95 3.51
 27 -2 -9 13.26 3.47
 27 -4 -9 12.13 3.5
 -27 -6 9 4.3 4.27
 -27 -8 9 2.28 4.37
 -27 -10 9 3.77 4.77
 -10 -27 9 3.27 4.58
 -27 -10 -9 -0.29 3.75
 -27 -12 9 -4.25 4.94
 -12 -27 9 3.27 4.25
 -27 -12 -9 0.89 4.02
 -27 -14 9 -4.11 5.1
 -27 -14 -9 4.6 4.33
 -14 -27 9 8.78 4.26
 -27 -16 9 9.31 5.23
 -27 -16 -9 8.67 4.55
 -28 -7 9 -5.26 4.18
 -28 -9 9 2.76 4.5
 -28 -11 9 9.93 4.82
 -11 -28 9 0.3 4.09
 -28 -11 -9 3.32 3.87
 -28 -13 9 -0.85 4.9
 -13 -28 9 10.16 4.19
 -28 -13 -9 10.23 4.12
 -28 -15 9 10.59 5.03
 -15 -28 9 5.88 4.56
 -28 -15 -9 -2.62 6.88
 -29 -8 9 2.24 4.21
 -29 -10 9 -4.33 4.42
 -10 -29 9 3.32 4.05
 -29 -12 9 -0.28 4.71
 -12 -29 9 1.99 3.99
 -9 -30 9 4.05 4.76
 -30 -11 9 5.02 4.58
 -11 -30 9 5.84 4.42
 0 0 -10 2.15 3.03
 -1 -1 10 7.3 3.14
 1 1 -10 -1.23 3.58
 -1 1 -10 -5.78 2.9
 1 -1 10 4.36 3.04
 2 0 -10 34.97 3.76
 0 -2 10 40.31 3.59
 2 -2 10 -0.11 2.9
 2 2 -10 -0.99 3.84
 -2 -2 10 1.06 3.69
 1 3 -10 1.14 3.73
 1 -3 10 0.66 3.38
 -3 1 -10 -5.1 2.7
 -3 -1 10 0.43 3.46
 3 -1 -10 1.73 3.48
 3 1 -10 -0.16 3.42
 -1 -3 10 4.23 3.41
 -1 3 -10 -1.38 3.08
 3 3 -10 58.02 4.47
 -3 -3 10 51.33 4.47
 3 -3 10 44.04 3.56
 -4 0 10 79.97 6.21
 4 0 -10 72.24 6.04
 0 -4 10 82.09 6.37
 -4 -2 10 24.02 3.93
 2 4 -10 33.6 4.42
 -4 2 -10 35.55 2.93
 2 -4 10 33.84 3.65
 4 2 -10 30.66 3.85
 4 -2 10 31.28 2.94
 -4 -4 10 -1.97 3.82
 4 4 -10 8.72 4.32
 4 -4 10 -1.26 3.02
 5 -1 -10 35.41 4.21
 1 5 -10 31.41 4.4
 1 -5 10 24.16 4.01
 -5 -1 10 23.67 3.92
 -5 1 -10 25.09 2.51
 5 1 -10 28.65 4
 -1 -5 10 27.56 4.11
 3 -5 10 47.49 3.97
 3 5 -10 38.25 4.63
 -5 3 -10 48.94 3.27
 -3 -5 10 45.92 4.98
 5 -3 10 41.19 3.24
 5 3 -10 48.47 4.46
 -5 -5 10 61.41 5.11
 5 5 -10 65.83 4.79
 5 -5 10 68.66 5.25
 -6 0 10 288.33 12.16
 -6 -4 10 221.02 10.2
 4 -6 10 226.36 9.81
 6 4 -10 196.36 9.93
 6 -4 10 219.69 8.96
 -6 -6 10 -2.91 4.15
 6 6 -10 -4.57 4.27
 6 -6 10 -8.26 3.36
 1 -7 10 3.96 4.48
 -7 -1 10 -1.41 3.87
 7 -1 -10 -4.79 4.25
 7 1 -10 2.36 4.23
 -1 -7 10 2.59 4.57
 3 -7 10 64.99 4.86
 -7 -3 10 62.75 4.9
 7 3 -10 59.2 4.69
 -3 -7 10 53.18 5.27
 -7 -5 10 8.55 4.1
 -5 -7 10 11.71 4.2
 7 -5 10 2.58 2.9
 7 5 -10 5.09 4.26
 -7 -7 10 1.67 4.27
 8 0 -10 199.5 9.76
 -8 0 10 214.41 9.81
 8 -2 -10 224.08 10.34
 -8 -2 10 220.37 10.37
 8 2 -10 219.47 10.15
 -2 -8 10 231.97 10.78
 -8 -4 10 49.34 4.57
 -4 -8 10 65.61 5.46
 8 4 -10 61.91 4.87
 -8 -6 10 51.9 4.99
 -6 -8 10 43.1 5.09
 8 6 -10 38.65 4.99
 -8 -8 10 5.68 4.71
 -9 -1 10 -0.91 3.68
 9 -1 -10 3.42 3.99
 9 1 -10 -1.42 3.77
 -1 -9 10 11.58 5
 -9 -3 10 19.73 4.39
 9 3 -10 17.07 4.05
 -3 -9 10 21.17 4.94
 9 5 -10 11.11 4.02
 -5 -9 10 16.64 4.71
 -9 -7 10 32.77 4.81
 -7 -9 10 42.88 4.91
 9 7 -10 49.3 5.32
 -9 -9 10 146.78 8.63
 10 0 -10 285.35 11.99
 -10 -2 10 51.76 4.46
 -10 -4 10 137.75 8.21
 -4 -10 10 133.37 9.01
 10 4 -10 144.89 7.55
 -10 -6 10 11.81 4.36
 10 6 -10 4.57 4.34
 -6 -10 10 19.41 5.5
 -10 -8 10 143.51 8.44
 -8 -10 10 161.56 8.95
 -10 -10 10 -0.9 4.46
 11 -1 -10 17.59 4.17
 -11 -1 10 16.58 3.97
 11 1 -10 26.33 3.83
 11 -3 -10 165.78 8.54
 -11 -3 10 167.37 8.8
 11 3 -10 169.73 8.42
 -11 -5 10 281.26 11.99
 11 5 -10 253.49 11.73
 -5 -11 10 268.4 12.27
 -7 -11 10 337.77 14.73
 -11 -9 10 349.41 14.53
 -9 -11 10 348.72 14.8
 -11 -11 10 430.35 17.52
 12 0 -10 85.91 6.49
 -12 -2 10 75.96 6.39
 12 -2 -10 77.37 4.94
 12 2 -10 77.93 6.11
 12 -4 -10 21.73 3.88
 -12 -4 10 21 4.25
 12 4 -10 17.83 3.93
 -4 -12 10 19.45 4.87
 -12 -6 10 5.47 4.55
 -6 -12 10 -7.25 4.67
 12 6 -10 1.38 4.29
 -12 -8 10 2.18 4.33
 -8 -12 10 -4.87 4.7
 -12 -10 10 25.21 4.52
 -10 -12 10 38.36 4.73
 -12 -12 10 2.04 4.59
 13 -1 -10 0.58 3.65
 -13 -1 10 0.97 3.71
 13 1 -10 4.46 3.59
 13 -3 -10 35.18 4.18
 -13 -3 10 46.28 4.36
 13 3 -10 37.29 4.05
 -13 -5 10 100.82 7.23
 13 5 -10 88.35 6.77
 -5 -13 10 77.99 6.49
 -7 -13 10 58.29 5.42
 -13 -9 10 114.02 7.91
 -9 -13 10 111.11 8.56
 -13 -11 10 187.91 9.91
 -11 -13 10 212.3 10.53
 -13 -13 10 72.13 5.54
 14 0 -10 289.52 12.03
 -14 -2 10 247.5 10.65
 14 -2 -10 247.78 10.51
 14 2 -10 227.8 10.47
 14 -4 -10 137.64 7.53
 -14 -4 10 141.34 7.8
 14 4 -10 126.31 7.41
 -14 -6 10 54.15 4.9
 -6 -14 10 71.09 6.37
 14 6 -10 54.89 4.91
 -14 -8 10 47.91 4.95
 -8 -14 10 48.96 5.55
 -14 -10 10 16.16 4.71
 -10 -14 10 10.59 4.86
 -14 -12 10 8.86 4.92
 -12 -14 10 20.39 4.91
 -14 -14 10 -0.38 4.86
 -15 -1 10 4.42 3.75
 15 -1 -10 2.93 3.71
 15 1 -10 2.87 3.61
 -15 -3 10 7.76 3.91
 15 3 -10 4.13 3.61
 -15 -5 10 25.28 4.33
 15 5 -10 27.61 4.22
 -15 -7 10 20.16 4.47
 -7 -15 10 28.84 5.03
 -15 -9 10 66.11 5.48
 -9 -15 10 54.2 5.83
 -15 -11 10 55.22 5.16
 -11 -15 10 59.06 5.95
 -15 -13 10 21.48 5.16
 -13 -15 10 23.01 5.23
 -15 -15 10 -3.04 4.8
 16 0 -10 101.55 6.38
 16 -2 -10 47.01 4.27
 -16 -2 10 34.83 4.25
 16 2 -10 48.45 4.2
 -16 -4 10 10.91 3.94
 16 -4 -10 0.43 3.75
 16 4 -10 6.88 3.82
 16 -6 -10 0.64 3.71
 -16 -6 10 1.08 4.13
 16 6 -10 6.43 4.08
 -16 -8 10 9.62 4.53
 -8 -16 10 12.79 5.71
 -16 -10 10 15.21 4.48
 -10 -16 10 11.01 4.89
 -16 -12 10 -5.66 4.65
 -12 -16 10 -0.06 4.69
 -16 -14 10 3.61 4.92
 -14 -16 10 2.58 4.64
 -16 -16 10 -10.96 4.66
 17 -1 -10 3.24 3.47
 17 1 -10 -3.15 3.59
 17 -3 -10 1.55 3.73
 17 3 -10 2.74 3.6
 17 -5 -10 -3.87 3.6
 -17 -5 10 -8.85 4.06
 -17 -5 -10 -0.63 3.14
 17 5 -10 -7.14 3.91
 17 -7 -10 8.5 3.9
 -17 -7 10 -2.79 4.51
 -7 -17 10 1.48 5.91
 -17 -9 10 -4.28 4.64
 -9 -17 10 1.99 4.8
 -17 -11 10 8.13 4.84
 -11 -17 10 0.25 5.03
 -17 -13 10 3.37 4.82
 -13 -17 10 -5.95 5.23
 -17 -15 10 -2.57 4.81
 -15 -17 10 -0.59 5.21
 -17 -17 10 0.63 5.23
 18 0 -10 1.11 3.56
 18 -2 -10 3.36 3.51
 -18 -2 10 1.27 3.94
 18 2 -10 -0.24 3.56
 18 -4 -10 5.57 3.82
 -18 -4 10 1.81 4.16
 18 4 -10 -2.87 3.76
 -18 -6 10 -5.71 4.41
 18 -6 -10 -3.46 3.67
 -18 -6 -10 1.55 3.39
 -18 -8 10 4.81 4.51
 -8 -18 10 5.48 4.86
 -18 -8 -10 4.52 3.78
 -18 -10 10 7.91 4.55
 -10 -18 10 8.66 5.25
 -18 -12 10 -4.96 4.59
 -12 -18 10 -6.21 5.47
 -18 -14 10 -1.75 4.83
 -14 -18 10 -2.15 4.9
 -18 -16 10 5.46 4.75
 -16 -18 10 -3.79 4.63
 -18 -18 10 6.29 4.83
 19 -1 -10 -0.33 3.49
 19 1 -10 5.99 3.62
 19 -3 -10 9.51 3.79
 -19 -3 10 1.66 3.98
 19 3 -10 3.45 3.76
 19 -5 -10 10.8 3.72
 -19 -5 10 11.56 4.16
 19 5 -10 9.17 4.05
 19 -7 -10 17.27 3.82
 -19 -7 10 12.51 4.48
 -19 -7 -10 8.72 3.62
 -19 -9 -10 2.52 3.88
 -9 -19 10 2.85 4.98
 -19 -11 10 17.83 4.91
 -11 -19 10 17.8 5.73
 -19 -13 10 8.96 4.82
 -13 -19 10 7.46 4.82
 -19 -15 10 11.78 4.91
 -19 -17 10 -2.11 4.97
 -17 -19 10 4.53 4.81
 -19 -19 10 -2.83 4.75
 20 0 -10 102.86 6.42
 20 -2 -10 62.18 4.47
 20 2 -10 59.63 4.48
 -20 -4 10 21.7 4.32
 20 -4 -10 16.71 3.99
 20 4 -10 23.92 3.96
 20 -6 -10 1.66 3.95
 -20 -6 10 8.58 4.41
 20 -8 -10 12.96 4.08
 -20 -8 10 6.51 4.66
 -8 -20 10 10.66 5.72
 -20 -8 -10 12.38 3.96
 -20 -10 10 10.98 4.92
 -10 -20 10 -0.62 5.21
 -20 -10 -10 7.63 4.1
 -20 -12 10 -6.21 4.86
 -12 -20 10 -0.3 5.08
 -20 -12 -10 -1.02 4.13
 -20 -14 10 8 4.97
 -14 -20 10 0.06 4.67
 -20 -16 10 3.69 5.2
 -20 -18 10 2.69 4.98
 -18 -20 10 2.2 5.13
 -20 -20 10 12.7 5.12
 21 -1 -10 7.74 3.54
 21 1 -10 0.45 3.53
 -21 -3 10 3.11 4.01
 21 -3 -10 0.71 3.72
 21 -5 -10 16.3 3.91
 -21 -5 10 8.72 4.3
 -21 -7 10 16.4 4.62
 21 -7 -10 13.23 4.08
 -21 -7 -10 16.56 3.61
 -21 -9 10 7.79 4.79
 21 -9 -10 11.01 4.27
 -9 -21 10 2.86 5.18
 -21 -9 -10 3.08 3.95
 -21 -11 10 6.44 5.14
 -11 -21 10 4.75 5.61
 -21 -11 -10 15.9 4.23
 -21 -13 10 2.58 5.08
 -21 -13 -10 4.96 4.3
 -13 -21 10 1.92 4.68
 -21 -15 10 10.61 5.3
 -15 -21 10 -5.9 4.92
 -21 -15 -10 -3.58 4.37
 -21 -17 10 2.04 5
 -17 -21 10 -4.93 5.05
 -21 -19 10 3.53 4.83
 -19 -21 10 1.64 5.07
 -21 -21 10 2.26 5.01
 22 0 -10 28.17 3.75
 22 -2 -10 23.95 3.82
 22 2 -10 22.43 3.85
 -22 -4 10 19.64 4.24
 22 -4 -10 17.78 3.83
 22 4 -10 15.82 3.79
 -22 -6 10 12.39 4.51
 22 -6 -10 14.58 4.02
 22 -8 -10 6.76 4.12
 -22 -8 10 17.98 4.81
 -22 -8 -10 6.24 3.78
 22 -10 -10 2.25 4.27
 -22 -10 10 -2.51 5
 -10 -22 10 6.98 4.89
 -22 -10 -10 10.25 4.07
 -22 -12 10 7.84 5.01
 -12 -22 10 2.31 5.48
 -22 -12 -10 0.78 4.24
 -22 -14 10 -3.46 5.03
 -14 -22 10 1.79 4.54
 -22 -14 -10 3.72 4.53
 -22 -16 10 5.96 5.03
 -16 -22 10 0.88 4.89
 -22 -16 -10 -0.02 4.53
 -22 -18 10 6.33 5.25
 -18 -22 10 -1.41 5.12
 -22 -18 -10 -0.62 4.44
 -22 -20 10 4.92 4.89
 -20 -22 10 -5.02 4.7
 -22 -22 10 -5.66 4.6
 23 -1 -10 9.86 3.63
 23 1 -10 5.42 3.59
 23 -3 -10 4.71 3.61
 23 3 -10 9.66 3.73
 -23 -5 10 7.5 4.23
 23 -5 -10 10.96 3.91
 -23 -7 10 8.99 4.62
 23 -7 -10 8.54 4.05
 23 -9 -10 -4.65 4.03
 -9 -23 10 1.37 4.95
 23 -11 -10 9.84 4.36
 -23 -11 10 5.67 5.13
 -23 -11 -10 -3.18 4.18
 -11 -23 10 1.25 4.68
 -23 -13 10 2.5 5.11
 -23 -13 -10 9.35 4.39
 -13 -23 10 11.97 5.47
 -23 -15 10 -2.83 5.15
 -15 -23 10 0.03 4.47
 -23 -15 -10 -1.34 4.35
 -23 -17 10 -4.29 4.94
 -23 -17 -10 6.71 4.52
 -17 -23 10 0.16 4.96
 -23 -19 10 -1.3 4.75
 -19 -23 10 7.75 4.92
 -23 -19 -10 6.52 4.39
 -23 -21 10 2.92 5.08
 -21 -23 10 -2.6 4.48
 -23 -21 -10 2.76 4.42
 24 0 -10 5.46 3.66
 24 -2 -10 8.32 3.61
 24 2 -10 4.05 3.52
 24 -4 -10 3.26 3.69
 -24 -6 10 5.54 4.38
 24 -6 -10 0.05 4.01
 24 -8 -10 4.69 4.02
 -24 -8 10 10.53 4.67
 -24 -10 10 3.44 4.9
 -10 -24 10 5.87 4.85
 -24 -10 -10 4.91 4.03
 24 -12 -10 -0.54 4.37
 -24 -12 10 -0.7 5.17
 -12 -24 10 0.8 4.61
 -24 -12 -10 1.25 4.26
 -24 -14 10 -2.65 5.13
 -14 -24 10 -9.23 5.15
 -24 -14 -10 9.92 4.43
 -24 -16 10 -1.66 5.02
 -16 -24 10 -0.68 4.38
 -24 -16 -10 1.03 4.42
 -24 -18 10 3.6 5.01
 -24 -18 -10 4.95 4.36
 -24 -20 10 0.28 4.78
 -20 -24 10 2.49 4.76
 25 -1 -10 3.93 3.45
 25 1 -10 5.76 3.57
 25 -3 -10 12.63 3.66
 25 -5 -10 27.84 3.95
 -25 -5 10 21.97 4.51
 -25 -7 10 25.18 4.76
 25 -7 -10 34.41 4.35
 25 -9 -10 27.73 4.3
 -25 -9 10 29.67 5.01
 -9 -25 10 22.38 5.21
 -25 -11 10 13.08 5.11
 25 -11 -10 18.2 4.21
 -11 -25 10 8.86 4.66
 -25 -11 -10 17.14 4.14
 -25 -13 10 9.44 5.27
 25 -13 -10 15.74 4.46
 -25 -13 -10 15.95 4.44
 -13 -25 10 8.77 4.52
 -25 -15 10 -0.47 5.37
 -25 -15 -10 9.08 4.48
 -15 -25 10 12.22 5.12
 -25 -17 10 -5.92 4.99
 -25 -17 -10 1.67 4.41
 -17 -25 10 7.06 4.31
 -25 -19 10 -5.54 5.17
 -19 -25 10 -1.65 4.69
 -25 -19 -10 -5.29 4.39
 26 0 -10 11.23 3.5
 26 -2 -10 7.28 3.43
 26 -4 -10 7.01 3.6
 -26 -6 10 0.33 4.3
 26 -6 -10 1.85 3.7
 26 -8 -10 3.69 4.13
 -26 -10 10 -1.86 4.82
 26 -10 -10 1.41 4.06
 -10 -26 10 -4.32 4.77
 -26 -12 10 -9.68 5.01
 26 -12 -10 4.34 4.1
 -12 -26 10 1.68 4.33
 -26 -12 -10 0.02 4.05
 -26 -14 10 9.3 5.25
 -14 -26 10 -1.43 4.37
 -26 -14 -10 5.5 4.42
 26 -16 -10 -5.43 4.52
 -26 -16 10 6.57 5.19
 -16 -26 10 4.8 4.9
 -26 -16 -10 -1.83 4.39
 -26 -18 10 0.29 4.85
 -26 -18 -10 10.05 4.47
 -18 -26 10 1.38 4.14
 27 -1 -10 3.01 3.46
 27 1 -10 0.68 3.4
 27 -3 -10 12.79 3.46
 27 -5 -10 29.17 3.9
 -27 -7 10 44.19 4.76
 27 -7 -10 32.99 4.18
 27 -9 -10 50.52 5.75
 -27 -9 10 46.81 5.1
 -27 -11 10 37.12 5.2
 -27 -11 -10 34.71 4.13
 -11 -27 10 27.46 4.76
 -27 -13 10 21.92 5.24
 -13 -27 10 11.79 4.21
 -27 -13 -10 11.54 4.22
 -27 -15 10 4.85 5.17
 -15 -27 10 8.75 4.58
 -27 -15 -10 16.65 4.57
 28 0 -10 13.66 3.44
 28 -2 -10 13.89 5.9
 -28 -8 10 -8.16 4.33
 -28 -10 10 11.43 4.66
 -10 -28 10 5.86 4.16
 -28 -12 10 5.95 4.85
 -12 -28 10 1.11 4.12
 -28 -14 10 11.94 5.01
 -28 -14 -10 5.13 4.88
 -9 -29 10 13.32 4.3
 -29 -11 10 26.3 4.79
 -11 -29 10 15.51 4.22
 -29 -13 10 16.12 4.94
 -13 -29 10 19.94 4.1
 -8 -30 10 2.9 4.67
 -30 -10 10 -1.61 4.31
 -10 -30 10 0.87 4.43
 0 1 -11 -2.55 3.06
 1 0 -11 5.76 3.71
 -1 0 -11 0.02 2.86
 0 -1 11 3.32 3.58
 1 -2 11 -0.57 3.36
 -2 -1 11 4.51 3.59
 -2 1 -11 -5.86 2.65
 1 2 -11 0.38 3.15
 2 1 -11 -5.13 3.67
 -1 2 -11 -1.32 2.84
 -1 -2 11 -0.8 3.71
 2 -1 11 -3.53 3.2
 0 -3 11 14.4 4.18
 3 0 -11 12.21 3.95
 -3 -2 11 -1.45 3.98
 2 3 -11 1.27 3.54
 2 -3 11 8.84 3.61
 -2 -3 11 -3.77 4.07
 3 -2 11 4.69 2.97
 3 2 -11 0.31 3.82
 1 4 -11 9.26 3.69
 1 -4 11 6.19 3.8
 -4 -1 11 9.39 3.83
 4 -1 -11 5.22 3.74
 4 1 -11 -2.87 4.06
 -1 -4 11 3.56 4
 -4 -3 11 -1.18 4.37
 4 3 -11 0.23 3.63
 4 -3 11 3.44 2.92
 -3 -4 11 6.14 4.45
 -5 0 11 0.63 4.03
 0 -5 11 -6.57 3.98
 5 0 -11 1.91 3.93
 2 -5 11 14.29 3.98
 2 5 -11 16.08 3.84
 -5 2 -11 10.73 2.64
 -5 -2 11 17.98 4.54
 5 2 -11 10.89 4
 -2 5 -11 7.13 3.33
 -2 -5 11 7.94 4.02
 -5 -4 11 4.83 4.39
 4 -5 11 11.55 3.42
 5 4 -11 7.33 4.22
 5 -4 11 12.98 3.03
 -4 -5 11 12.98 4.16
 6 -1 -11 19.95 4.36
 1 -6 11 8.06 4.13
 1 6 -11 21.33 4.08
 -6 1 -11 11.58 2.32
 -6 -1 11 18.87 4.55
 6 1 -11 17.04 4.06
 -1 -6 11 10.49 4.14
 -6 3 -11 1.02 2.58
 3 -6 11 2.55 3.74
 -6 -3 11 3.37 4.03
 3 6 -11 -4.65 4.41
 -3 -6 11 -6.36 4.46
 6 3 -11 -0.13 3.87
 5 -6 11 12.84 3.78
 5 6 -11 11.24 4.97
 -6 -5 11 21.6 4.49
 6 -5 11 6.5 3.18
 6 5 -11 15.41 4.29
 -5 -6 11 11.8 4.09
 0 -7 11 -1.18 4.65
 7 0 -11 0.88 3.83
 -7 0 11 7.08 4.43
 2 -7 11 8.22 4.47
 7 -2 -11 3.87 3.97
 -7 -2 11 6.95 4.11
 7 2 -11 4.5 3.73
 -2 -7 11 -0.07 4.36
 4 -7 11 6.97 4.08
 -7 -4 11 -9 4.47
 4 7 -11 10.53 4.93
 -4 -7 11 -3.22 4.25
 7 4 -11 -2.33 4.19
 6 7 -11 5.22 5.05
 6 -7 11 -3.55 3.62
 -7 -6 11 4.85 4.63
 -6 -7 11 13.95 4.88
 7 -6 11 5.72 3.35
 7 6 -11 3.18 4.32
 -8 -1 11 -0.36 3.96
 8 -1 -11 -1.19 4.12
 1 -8 11 -1.94 4.67
 8 1 -11 -1.83 3.89
 -1 -8 11 0.32 4.98
 3 -8 11 -0.76 4.28
 -8 -3 11 -0.9 4.22
 8 3 -11 7.68 4
 -3 -8 11 2.64 4.71
 5 -8 11 6.72 3.98
 -8 -5 11 -1.9 4.16
 -5 -8 11 8.77 4.39
 8 -5 11 2.57 2.61
 8 5 -11 -1.38 4.09
 -8 -7 11 8.07 4.66
 8 7 -11 3.34 4.43
 -7 -8 11 -4.22 4.1
 8 -7 11 -2.05 3.32
 0 -9 11 -7.32 5.07
 9 0 -11 8.38 3.93
 -9 -2 11 4.22 4.13
 2 -9 11 2.14 4.77
 9 -2 -11 3.55 4.26
 9 2 -11 8.06 3.69
 -2 -9 11 1.46 4.92
 -9 -4 11 0.25 4.04
 9 4 -11 3.31 4.03
 -9 -6 11 -2.73 4.72
 -6 -9 11 8.77 4.62
 9 -6 11 1.02 2.75
 9 6 -11 -1.23 4.38
 -9 -8 11 7.91 4.08
 -8 -9 11 8.07 4.57
 1 -10 11 11.59 4.92
 10 -1 -11 1.34 3.9
 -10 -1 11 2.47 3.95
 10 1 -11 9.78 4
 -1 -10 11 -0.56 5.26
 10 -3 -11 -0.34 3.93
 10 3 -11 -0.33 3.87
 -3 -10 11 1.77 4.99
 -10 -5 11 4.06 4.18
 -5 -10 11 13.01 4.8
 10 5 -11 1.29 4.12
 -10 -7 11 -0.93 4.71
 10 7 -11 11.57 4.36
 10 -7 11 5.04 2.91
 -7 -10 11 5.47 4.75
 -10 -9 11 5.12 4.26
 -9 -10 11 -5.77 4.42
 11 0 -11 -0.37 3.8
 11 -2 -11 13.55 3.91
 -11 -2 11 3.13 3.8
 11 2 -11 7.35 3.71
 -2 -11 11 12.85 5.01
 -4 -11 11 -7.7 5.2
 11 4 -11 -6.42 3.97
 -11 -6 11 23.06 4.55
 11 6 -11 25.19 4.49
 -6 -11 11 27.69 5.49
 -11 -8 11 2.28 4.26
 -8 -11 11 -2.52 5.13
 -11 -10 11 6.96 4.23
 -10 -11 11 14.97 4.8
 -12 -1 11 -4.93 3.78
 12 -1 -11 -5.48 3.8
 12 1 -11 -0.32 3.57
 -12 -3 11 -2.9 3.86
 12 -3 -11 1.09 3.88
 12 3 -11 -3.56 3.82
 -3 -12 11 2.19 5.01
 -12 -5 11 3.68 4.31
 -5 -12 11 1.07 5.59
 12 5 -11 7.96 4.05
 -12 -7 11 3 4.31
 -7 -12 11 4.05 4.91
 12 7 -11 2.04 4.71
 -12 -9 11 3.24 4.22
 -9 -12 11 -0.44 4.82
 -12 -11 11 -5.03 4.74
 -11 -12 11 -4.15 4.54
 13 0 -11 5.37 3.76
 -13 -2 11 12.68 3.82
 13 -2 -11 10.73 3.74
 13 2 -11 7.46 3.76
 -13 -4 11 3.98 4
 13 -4 -11 -0.63 3.9
 -4 -13 11 -3.1 5.25
 13 4 -11 -0.29 3.77
 -13 -6 11 5.35 4.39
 -6 -13 11 -0.62 5.74
 13 6 -11 3.63 4.2
 -13 -8 11 8.37 4.33
 -8 -13 11 7.32 4.91
 -13 -10 11 -0.12 4.41
 -10 -13 11 -4.97 4.68
 -13 -12 11 18.37 4.65
 -12 -13 11 12.09 4.56
 -14 -1 11 -4.49 3.75
 14 -1 -11 -4.07 3.69
 14 1 -11 -4.37 3.52
 -14 -3 11 -4.98 3.97
 14 3 -11 -1.34 3.68
 14 -5 -11 0.59 3.9
 -14 -5 11 -2.14 4.08
 -5 -14 11 7.96 4.8
 -14 -7 11 -6.36 4.34
 -7 -14 11 9.51 5.5
 14 7 -11 -4.57 4.31
 -14 -9 11 13.9 4.44
 -9 -14 11 3.46 5.12
 -14 -11 11 1.68 4.44
 -11 -14 11 5.52 4.87
 -14 -13 11 6.46 4.48
 -13 -14 11 -2.86 4.56
 15 0 -11 3.3 3.58
 15 -2 -11 12.07 3.84
 -15 -2 11 15.12 3.92
 -15 -4 11 -5.09 3.94
 15 -4 -11 -3.45 3.68
 15 4 -11 -2.98 3.8
 -15 -6 11 -2.36 4.24
 15 -6 -11 -1.83 3.74
 -6 -15 11 6.98 5.34
 15 6 -11 -1.73 4.32
 -15 -8 11 6.49 4.58
 -8 -15 11 4.18 5.03
 -15 -10 11 -1.58 4.78
 -10 -15 11 3.73 5.35
 -15 -12 11 13.73 4.86
 -12 -15 11 10.01 5.41
 -15 -14 11 6.9 4.64
 -14 -15 11 6.38 5.12
 16 1 -11 10.75 3.63
 16 -3 -11 5.89 3.79
 -16 -3 11 -2.79 3.92
 16 3 -11 2.12 3.65
 -16 -5 11 0.69 4.14
 16 -5 -11 -0.84 3.79
 -5 -16 11 -5.22 5.14
 -16 -7 11 1.36 4.41
 -7 -16 11 -0.61 5.47
 -16 -9 11 8.76 4.61
 -16 -11 11 -1.46 4.45
 -11 -16 11 -1.61 4.68
 -16 -13 11 13.31 4.92
 -13 -16 11 13.43 4.96
 -16 -15 11 6.37 5.25
 17 0 -11 10.31 3.53
 17 -2 -11 9.95 3.78
 -17 -2 11 -0.65 3.9
 17 2 -11 3.04 3.59
 -17 -4 11 -3.24 4.13
 17 -4 -11 0.72 3.61
 17 4 -11 -1.76 3.8
 17 -6 -11 2.88 3.81
 -17 -6 11 2.09 4.23
 17 6 -11 7.79 4.04
 -6 -17 11 -2.37 5.38
 -8 -17 11 -0.17 5.03
 -17 -10 11 0.74 4.45
 -10 -17 11 -2.38 5.13
 -17 -12 11 2.1 4.76
 -12 -17 11 9.8 5.45
 -17 -14 11 -6.95 4.97
 -14 -17 11 -11.6 5.02
 -17 -16 11 10.36 4.94
 -16 -17 11 14.78 4.79
 18 -1 -11 1.22 3.45
 18 1 -11 1.53 3.57
 -18 -3 11 -0.06 3.83
 18 -3 -11 2.1 3.72
 18 3 -11 -0.43 3.64
 -18 -5 11 -3.31 4.27
 18 -5 -11 1.74 3.73
 18 5 -11 -0.23 3.9
 -18 -7 11 -5.53 4.24
 18 -7 -11 9.06 4.05
 -18 -7 -11 0.79 3.49
 -7 -18 11 2.45 5.51
 -18 -9 11 0.18 4.54
 -9 -18 11 -8.47 5.24
 -18 -11 11 -2.41 4.64
 -11 -18 11 1.95 5.41
 -18 -13 11 -0.47 4.92
 -13 -18 11 3.46 4.78
 -18 -15 11 4.79 5.13
 -15 -18 11 -1.83 4.85
 -18 -17 11 3.45 4.83
 -17 -18 11 -0.18 4.88
 19 0 -11 6.82 3.57
 19 -2 -11 5.98 3.71
 19 2 -11 9.98 3.61
 -19 -4 11 -4.63 4.12
 19 -4 -11 4.68 3.74
 19 4 -11 -4.11 3.78
 -19 -6 11 9.73 4.42
 19 -6 -11 0.94 3.79
 -19 -8 11 8.42 4.48
 19 -8 -11 -1.55 4
 -8 -19 11 -10.44 4.93
 -19 -8 -11 -1.79 3.77
 -19 -10 11 9.78 4.75
 -10 -19 11 4.93 5.86
 -19 -12 11 8.21 4.79
 -12 -19 11 3.22 4.77
 -19 -14 11 -4.51 5.04
 -14 -19 11 -5.79 4.97
 -19 -16 11 2.4 4.92
 -16 -19 11 1.54 5.32
 -19 -18 11 1.52 4.84
 -18 -19 11 -5.09 5.04
 20 -1 -11 -1.11 3.64
 20 1 -11 3.15 3.46
 -20 -3 11 1.33 4.04
 20 -3 -11 2.44 3.69
 20 3 -11 7.63 3.82
 20 -5 -11 -5.11 3.72
 -20 -5 11 -4.26 4.37
 20 5 -11 5.85 3.88
 -20 -7 11 -0.63 4.43
 20 -7 -11 -2.73 3.87
 -20 -7 -11 -3.37 3.41
 -7 -20 11 -4.06 5.53
 -20 -9 11 8.78 4.74
 20 -9 -11 1.75 4.03
 -9 -20 11 0.93 5.03
 -20 -9 -11 -2.78 3.78
 -20 -11 11 1.52 4.92
 -20 -11 -11 -5.62 4
 -11 -20 11 -4.67 4.99
 -20 -13 11 8.91 4.94
 -13 -20 11 3.68 5.14
 -20 -15 11 0.49 5.03
 -15 -20 11 -0.13 5.5
 -20 -17 11 -6.78 5.12
 -17 -20 11 -0.09 4.73
 -20 -19 11 7.1 5.15
 -19 -20 11 2.59 4.69
 21 0 -11 3.75 3.57
 21 -2 -11 7.3 3.73
 21 2 -11 6.07 3.67
 21 -4 -11 -2.37 3.85
 -21 -4 11 5.34 4.11
 21 4 -11 1.49 3.76
 -21 -6 11 1.79 4.46
 21 -6 -11 7.45 3.93
 -21 -8 11 -6.33 4.64
 21 -8 -11 5.03 3.97
 21 -10 -11 0.19 4.25
 -21 -10 11 1.77 5.01
 -10 -21 11 -0.07 5.56
 -21 -10 -11 1.75 3.97
 -21 -12 11 -3.71 5.11
 -12 -21 11 -0.71 4.73
 -21 -12 -11 -2.36 4.17
 -21 -14 11 0.16 5.03
 -14 -21 11 0.08 5.31
 -21 -16 11 1.56 4.94
 -16 -21 11 5.57 4.82
 -21 -18 11 4.95 4.98
 -21 -20 11 11.67 4.71
 -20 -21 11 9 4.82
 22 -1 -11 -4.82 3.56
 22 1 -11 -5.81 3.48
 22 -3 -11 5.56 3.63
 22 3 -11 4.03 3.75
 22 -5 -11 -2.44 3.92
 -22 -5 11 -7.95 4.19
 -22 -7 11 -1.21 4.58
 22 -7 -11 2.99 3.98
 -7 -22 11 -1.97 4.77
 22 -9 -11 1.29 4.04
 -22 -9 11 1.58 4.79
 -22 -9 -11 3.11 3.89
 -9 -22 11 1.98 5.03
 -22 -11 11 3.22 5
 22 -11 -11 7.2 4.41
 -11 -22 11 2.07 5.65
 -22 -11 -11 2.04 4.15
 -22 -13 11 0.07 4.99
 -13 -22 11 5.38 4.64
 -22 -13 -11 -3.61 4.28
 -22 -15 11 -0.98 4.99
 -22 -15 -11 0.66 4.36
 -15 -22 11 1.97 5.22
 -22 -17 11 6.49 5.29
 -17 -22 11 -4.47 4.44
 -22 -17 -11 2.5 4.44
 -22 -19 11 0.06 5.29
 -19 -22 11 -3.35 4.71
 -22 -21 11 3.87 4.74
 -21 -22 11 -3.39 4.8
 23 0 -11 4.76 3.61
 23 -2 -11 6.33 3.68
 23 2 -11 3.2 3.69
 23 -4 -11 5.04 3.76
 -23 -4 11 -0.92 4.19
 23 4 -11 3 3.74
 23 -6 -11 0.89 4.04
 -23 -6 11 5.93 4.48
 23 -8 -11 2.07 4.07
 -23 -8 11 8.45 4.68
 -8 -23 11 2.77 4.6
 -23 -10 11 -2.37 4.87
 23 -10 -11 -8.9 4
 -23 -10 -11 3.23 4.03
 -10 -23 11 -0.16 4.87
 23 -12 -11 -7.35 4.4
 -23 -12 11 2.03 5.21
 -23 -12 -11 -0.08 4.24
 -12 -23 11 3.41 5.31
 -23 -14 11 -4.74 5.2
 -14 -23 11 -5.22 4.86
 -23 -14 -11 0.72 4.28
 -23 -16 11 -3.13 5.21
 -23 -16 -11 4.23 4.42
 -16 -23 11 6.65 4.9
 -23 -18 11 1.86 4.86
 -23 -18 -11 1.93 4.46
 -18 -23 11 -4.28 4.41
 -23 -20 11 0.74 4.65
 -23 -20 -11 -1.84 4.41
 -20 -23 11 1.46 4.71
 24 -1 -11 2.69 3.61
 24 1 -11 6.42 3.82
 24 -3 -11 -3.78 3.73
 24 3 -11 4.63 3.75
 24 -5 -11 -1.64 3.87
 -24 -5 11 -3.16 4.27
 -24 -7 11 1.5 4.52
 24 -7 -11 3.64 4.09
 -24 -9 11 7.05 4.78
 -24 -9 -11 9.65 3.7
 -9 -24 11 -2.65 4.69
 24 -11 -11 -5.34 4.11
 -24 -11 11 -4.29 5.03
 -11 -24 11 3.83 4.66
 -24 -11 -11 0.75 4.18
 -24 -13 11 -2.35 5.22
 24 -13 -11 -3.56 4.46
 -13 -24 11 -5.07 5.1
 -24 -13 -11 1.91 4.28
 -24 -15 11 14.66 5.42
 -24 -15 -11 7.77 4.37
 -15 -24 11 5.88 4.81
 -24 -17 11 -8.54 4.99
 -17 -24 11 -0.96 4.63
 -24 -17 -11 6.87 4.4
 -24 -19 11 -5.04 4.96
 -24 -19 -11 6.33 4.45
 -19 -24 11 -2.91 4.41
 25 0 -11 11.9 3.76
 25 -2 -11 -1.78 3.69
 25 2 -11 3.13 3.61
 25 -4 -11 2.95 3.77
 25 -6 -11 3.54 3.93
 -25 -6 11 -0.98 4.28
 -25 -8 11 -2.47 4.61
 25 -8 -11 -0.2 4.14
 -8 -25 11 -3.83 4.73
 -25 -8 -11 3.75 3.19
 25 -10 -11 1.44 4.19
 -25 -10 11 3.85 4.97
 -25 -10 -11 -0.09 3.73
 -10 -25 11 -3.49 4.63
 25 -12 -11 14.76 4.16
 -12 -25 11 2.69 4.44
 -25 -12 -11 8.84 4.31
 25 -14 -11 -3.62 4.38
 -25 -14 11 3.02 5.21
 -14 -25 11 -1.35 4.89
 -25 -14 -11 1.73 4.29
 -25 -16 11 4.63 5.3
 -25 -16 -11 -1.28 4.44
 -25 -18 11 1.78 5.05
 -18 -25 11 6.43 4.52
 -25 -18 -11 0.58 4.38
 26 -1 -11 4.11 3.55
 26 1 -11 1.56 3.52
 26 -3 -11 7.73 3.65
 26 -5 -11 -0.63 3.78
 -26 -7 11 2.53 4.4
 26 -7 -11 7.13 3.99
 26 -9 -11 0.12 4.11
 -26 -9 11 6.25 4.82
 -9 -26 11 7.57 4.64
 26 -11 -11 -5.91 4.18
 -11 -26 11 1.35 4.5
 -26 -11 -11 0.86 3.96
 -26 -13 11 -2.43 5.09
 26 -13 -11 1.09 4.09
 -26 -13 -11 8.28 4.31
 -26 -15 11 15.83 5.3
 26 -15 -11 5.34 4.49
 -15 -26 11 -5.24 4.78
 -26 -15 -11 -3.9 4.41
 -26 -17 11 -11.38 4.98
 -26 -17 -11 -1.31 4.32
 -17 -26 11 2.14 4.55
 27 0 -11 12.85 3.52
 27 -2 -11 -5.42 3.39
 27 -4 -11 2.48 3.59
 27 -6 -11 5.37 3.81
 27 -8 -11 -0.17 4.04
 -27 -8 11 -7.18 4.47
 -8 -27 11 2.26 4.38
 27 -10 -11 -1.33 4.18
 -27 -10 11 -0.2 4.81
 -10 -27 11 3.12 4.46
 27 -12 -11 -2.66 4.38
 -27 -12 11 -4.31 4.91
 -27 -12 -11 -4.13 4.03
 -12 -27 11 1.65 4.28
 -27 -14 11 -1.46 5.2
 -14 -27 11 -0.3 4.23
 -27 -14 -11 10 4.36
 -27 -16 11 6.69 5.2
 -16 -27 11 4.3 4.86
 -27 -16 -11 6.39 4.4
 28 -1 -11 10.46 3.52
 28 1 -11 4.03 3.48
 28 -3 -11 1.06 3.44
 -28 -7 11 4.49 4.53
 -28 -9 11 -0.77 4.5
 -9 -28 11 1.41 4.23
 -28 -11 11 -2.98 4.88
 -11 -28 11 4.26 4.18
 -28 -11 -11 -1.32 3.64
 -28 -13 11 -2.13 4.96
 -13 -28 11 3.22 4.09
 -28 -13 -11 -4.16 6.98
 -28 -15 11 1.84 5.06
 -15 -28 11 -4.71 4.11
 29 0 -11 3.54 5.51
 -29 -8 11 -2.14 4.24
 -8 -29 11 -1.99 4.62
 -29 -10 11 2.38 4.47
 -10 -29 11 -3.51 4.12
 -29 -12 11 4.01 4.91
 -12 -29 11 6.97 4.03
 -7 -30 11 -4.49 4.55
 -30 -9 11 5.38 4.32
 -9 -30 11 -2.81 4.66
 -6 -31 11 -6.14 4.09
 0 0 -12 8.31 3.49
 -1 -1 12 -4.45 3.78
 -1 1 -12 2.86 2.95
 1 1 -12 -4.04 3.63
 1 -1 12 0.93 3.52
 -2 0 -12 13.31 2.9
 0 -2 12 7.75 3.49
 0 2 -12 7.45 3.21
 2 0 -12 14.6 3.55
 2 2 -12 10.48 3.6
 -2 -2 12 4.36 3.94
 2 -2 12 8.9 3.41
 1 3 -12 -3.76 3.43
 -3 1 -12 -1.7 2.84
 -3 -1 12 7.79 4.18
 3 -1 -12 -0.13 3.78
 1 -3 12 -4.2 3.5
 -1 -3 12 -3.72 3.61
 -1 3 -12 2.53 3.1
 3 1 -12 -2.54 3.52
 3 -3 12 -7.84 3.29
 3 3 -12 -6.66 3.87
 0 -4 12 -4.8 3.59
 -4 0 -12 3 2.74
 4 0 -12 6.91 3.96
 -4 -2 12 -3.75 4.19
 2 4 -12 -3.09 4.04
 2 -4 12 -4.25 3.5
 -4 2 -12 0.4 2.76
 -2 -4 12 8.55 3.87
 4 2 -12 -1.71 3.53
 4 -2 12 -1.75 3.11
 4 4 -12 3.72 4.12
 4 -4 12 2.38 3.29
 -4 -4 12 -1.61 4.5
 5 -1 -12 -0.03 3.93
 -5 1 -12 3.82 2.74
 1 -5 12 11.62 4.06
 -5 -1 12 4.7 4.19
 1 5 -12 -3.46 4
 5 1 -12 -2.54 3.65
 -1 -5 12 4.59 4.12
 3 -5 12 -0.95 3.63
 3 5 -12 -6.05 4.57
 -5 -3 12 -0.68 4.06
 -5 3 -12 3.65 2.96
 5 -3 12 1.08 2.86
 -3 -5 12 -3.99 4.47
 5 3 -12 -4.09 3.86
 5 -5 12 -1.31 3.24
 -5 -5 12 -3.26 4.63
 6 0 -12 5.59 4.16
 0 -6 12 -1.76 3.92
 0 6 -12 8.24 4.23
 2 6 -12 -4.88 4.77
 6 -2 -12 -3.01 4.08
 -6 -2 12 0.99 4.07
 2 -6 12 2.83 4.12
 -2 -6 12 3.23 4.17
 6 2 -12 5.51 4.32
 -6 -4 12 11.6 4.6
 4 -6 12 15.52 3.67
 4 6 -12 9.79 4.44
 -4 -6 12 11.7 4.3
 6 4 -12 13.95 4.19
 6 -4 12 9.89 2.98
 6 -6 12 16.87 3.55
 -6 -6 12 24.18 4.78
 6 6 -12 18.94 4.6
 -7 -1 12 6.5 3.97
 7 -1 -12 1.1 4.15
 1 -7 12 -3.26 4.33
 7 1 -12 7.17 4.14
 -1 -7 12 -1.13 4.32
 3 7 -12 0.15 4.91
 -7 3 -12 -0.11 2.57
 3 -7 12 4.46 4.19
 -7 -3 12 -0.72 4.49
 7 3 -12 -5.36 3.71
 7 -3 12 2.78 2.42
 -3 -7 12 1.14 4.19
 5 -7 12 -4.05 3.95
 -7 -5 12 -3.11 4.43
 5 7 -12 -2.5 4.56
 7 5 -12 -4.69 4.27
 7 -5 12 1.96 2.81
 -5 -7 12 -12.24 5.01
 7 -7 12 -5.66 3.53
 -7 -7 12 -2.28 4.17
 7 7 -12 1.55 5.14
 0 -8 12 1.77 4.74
 8 0 -12 -5.38 4.26
 2 -8 12 -2.72 4.53
 8 -2 -12 6.33 4.28
 -8 -2 12 -3.66 4.41
 -2 -8 12 -2.51 4.89
 8 2 -12 0.38 3.66
 4 -8 12 -1.07 4.15
 -8 -4 12 -2.48 4.21
 -4 -8 12 2.47 4.48
 8 4 -12 1.61 4.03
 6 -8 12 4.45 3.83
 -8 -6 12 6.75 4.31
 8 6 -12 2.19 4.38
 -6 -8 12 6.48 4.7
 8 -6 12 2.31 2.88
 8 -8 12 0.25 3.57
 -8 -8 12 2.61 4.39
 1 -9 12 -4.33 4.97
 -9 -1 12 0.89 3.96
 9 -1 -12 -0.69 4
 -1 -9 12 0.09 5.07
 9 1 -12 5.06 4.13
 9 -3 -12 5.1 3.83
 3 -9 12 14.27 4.72
 -9 -3 12 -2.5 4.1
 -3 -9 12 4.55 4.65
 9 3 -12 6.05 4.14
 -9 -5 12 -2.01 4.16
 5 -9 12 2.16 4.37
 -5 -9 12 -3.24 4.92
 9 5 -12 2.73 3.87
 -9 -7 12 26.8 4.42
 9 7 -12 13.17 5.02
 9 -7 12 18.99 3.22
 -7 -9 12 17.34 4.73
 -9 -9 12 4.27 4.19
 0 -10 12 16.27 4.97
 10 0 -12 24.87 4.23
 2 -10 12 17.88 4.63
 -10 -2 12 10.94 4.02
 10 -2 -12 9.3 4.11
 -2 -10 12 12.48 5.19
 10 2 -12 18.69 3.76
 -10 -4 12 -4.51 4.23
 -4 -10 12 7.33 5.06
 10 4 -12 0.31 3.95
 -10 -6 12 -4.64 4.57
 10 6 -12 -3.98 4.31
 -6 -10 12 -1.97 5.16
 -10 -8 12 5.29 4.36
 -8 -10 12 4.32 4.65
 10 -8 12 -0.94 3.18
 -10 -10 12 7.03 4.27
 1 -11 12 7.22 4.79
 11 -1 -12 -3.63 3.84
 -11 -1 12 1.78 3.91
 -1 -11 12 4.59 5.21
 11 1 -12 -3.12 3.79
 11 -3 -12 1.26 4.18
 -3 -11 12 5.89 5.32
 -11 -5 12 -6.42 4.19
 -5 -11 12 2.28 4.67
 11 5 -12 0.92 3.99
 -11 -7 12 6.63 4.43
 11 7 -12 4.29 4.37
 -7 -11 12 -2.66 4.66
 -11 -9 12 10.6 4.25
 -9 -11 12 10.45 4.93
 -11 -11 12 0.02 4.87
 0 -12 12 8.32 5.38
 12 -2 -12 3.83 3.94
 12 2 -12 4.37 3.78
 -2 -12 12 4.04 5.09
 -12 -4 12 -3.79 3.99
 12 -4 -12 1.52 3.95
 -4 -12 12 -5.07 5.14
 12 4 -12 -5.42 3.84
 -12 -6 12 1.51 4.46
 -6 -12 12 12.95 5.27
 12 6 -12 2.59 4.39
 -12 -8 12 -2.92 4.23
 -8 -12 12 1.42 5.08
 -12 -10 12 -1.85 4.36
 -10 -12 12 -3.28 4.6
 -12 -12 12 5.62 4.44
 -13 -1 12 8.52 3.8
 13 -1 -12 -2.81 3.87
 13 1 -12 -3.85 3.63
 -1 -13 12 3.49 5.34
 -13 -3 12 5.04 4.23
 13 -3 -12 4.01 3.99
 -3 -13 12 11.96 5.44
 13 3 -12 7.84 3.9
 13 -5 -12 -0.18 3.79
 -13 -5 12 1.28 4.26
 13 5 -12 2.8 3.99
 -5 -13 12 1.23 4.72
 -13 -7 12 12.12 4.57
 13 7 -12 14.2 4.59
 -7 -13 12 14.81 5.53
 -13 -9 12 -0.37 4.27
 13 -9 12 -4.13 2.8
 -9 -13 12 5.5 4.74
 -13 -11 12 2.12 4.72
 -11 -13 12 11.31 4.5
 -13 -13 12 2.17 4.36
 14 0 -12 1.16 3.76
 -14 -2 12 3.17 3.9
 14 -2 -12 3.95 3.85
 -2 -14 12 -0.94 5.53
 14 2 -12 -3.78 3.61
 14 -4 -12 3.46 3.91
 -14 -4 12 2.23 4.04
 14 4 -12 0.61 3.72
 -4 -14 12 0.37 5.8
 -6 -14 12 2.7 4.8
 -14 -8 12 1.39 4.24
 -8 -14 12 -0.99 5.44
 -14 -10 12 -0.1 4.42
 -10 -14 12 -4.84 5.02
 -14 -12 12 -0.21 4.54
 -12 -14 12 0.92 4.56
 -14 -14 12 -0.24 4.47
 15 -1 -12 3.91 3.79
 15 1 -12 0.21 3.59
 15 -3 -12 9.07 3.79
 -3 -15 12 8.05 5.87
 -15 -5 12 -1.85 4.11
 15 -5 -12 -0.16 3.87
 -5 -15 12 1.48 5.2
 15 5 -12 -1.59 4
 -15 -7 12 1.73 4.43
 -7 -15 12 4.16 5.03
 15 7 -12 10.03 4.42
 -15 -9 12 9.48 4.37
 -9 -15 12 4.37 5.21
 -15 -11 12 5.81 4.88
 -11 -15 12 0.25 5.29
 -15 -13 12 4.73 4.53
 -13 -15 12 7.75 4.71
 -15 -15 12 -3.82 4.69
 16 0 -12 1.84 3.59
 -16 -2 12 -2.44 3.98
 16 -2 -12 -3.85 3.88
 16 2 -12 0.4 3.62
 16 -4 -12 4.72 4.03
 -16 -4 12 -1.98 3.96
 16 4 -12 4.44 3.89
 -4 -16 12 1.12 5.4
 -16 -6 12 1.69 4.13
 16 -6 -12 8.54 4.03
 -6 -16 12 -0.2 4.83
 16 6 -12 1.02 4.12
 -16 -8 12 -4.05 4.3
 -8 -16 12 -7.35 5.44
 -10 -16 12 10.15 4.86
 -16 -12 12 -6.87 4.56
 -12 -16 12 1.51 4.93
 -16 -14 12 -2.78 4.48
 -14 -16 12 -5.25 5.24
 -16 -16 12 0.24 5.14
 17 -1 -12 -1.79 3.69
 17 -3 -12 2.38 3.68
 17 3 -12 6.68 3.59
 -17 -5 12 9.58 4.08
 17 -5 -12 5.85 3.7
 -5 -17 12 -3.21 5.02
 17 5 -12 12.11 4.07
 17 -7 -12 11.93 3.99
 -17 -7 12 9.19 4.49
 -7 -17 12 5.58 5.68
 -17 -9 12 -0.21 4.44
 -9 -17 12 2.44 4.87
 -17 -11 12 8.77 4.69
 -11 -17 12 8.22 5.57
 -17 -13 12 3.77 4.66
 -13 -17 12 -2.76 4.74
 -17 -15 12 -0.38 4.63
 -15 -17 12 3.28 4.67
 -17 -17 12 4.3 4.81
 18 0 -12 2.31 3.56
 18 -2 -12 4.96 3.88
 -18 -2 12 -1.39 4
 18 2 -12 5.71 3.73
 18 -4 -12 2.97 3.74
 18 4 -12 -1.82 3.9
 18 -6 -12 -1.41 3.89
 -18 -6 12 -1.59 4.21
 18 6 -12 -7.72 4.22
 -6 -18 12 -11.54 5.27
 18 -8 -12 1.63 4.01
 -18 -8 12 -6.03 4.6
 -8 -18 12 -6.28 4.94
 -18 -10 12 -4.07 5.06
 -10 -18 12 7.87 5.54
 -18 -12 12 -5.94 5.08
 -12 -18 12 -3.47 4.71
 -18 -14 12 9.54 4.77
 -14 -18 12 4.25 5.1
 -18 -16 12 5.67 5.27
 -16 -18 12 10.48 5.35
 -18 -18 12 -5.67 5.01
 19 -1 -12 0.24 3.65
 19 1 -12 4.2 3.64
 19 -3 -12 -3.66 3.82
 -19 -3 12 3.61 4.07
 19 3 -12 -1.46 3.64
 -19 -5 12 -1.96 4.35
 19 -5 -12 3.1 3.93
 19 5 -12 0.79 3.89
 -5 -19 12 7.76 5.4
 19 -7 -12 -0.87 3.83
 -19 -7 12 6.48 4.49
 -7 -19 12 5.18 5.41
 19 -9 -12 1.66 4.02
 -19 -9 12 -7 4.87
 -9 -19 12 -9.19 5.36
 -11 -19 12 7.59 4.82
 -19 -13 12 7.04 4.97
 -13 -19 12 15.43 5.45
 -19 -15 12 -2.06 4.88
 -15 -19 12 -2.38 4.95
 -19 -17 12 -5.36 4.94
 -17 -19 12 3.28 4.68
 -19 -19 12 3 4.72
 20 0 -12 7.7 3.69
 20 -2 -12 0.9 3.53
 20 2 -12 6.96 3.67
 20 -4 -12 -0.59 3.96
 -20 -4 12 5.41 4.25
 20 4 -12 -1.07 3.74
 -20 -6 12 8.13 4.46
 20 -6 -12 1.46 3.89
 -6 -20 12 4.4 5.23
 20 -8 -12 0.52 4.28
 -20 -8 12 2 4.62
 -8 -20 12 -6.79 5.01
 -10 -20 12 -0.54 5.21
 -20 -10 -12 -3.33 3.86
 -20 -12 12 2.55 5.04
 -12 -20 12 5.77 5.17
 -20 -14 12 6 5.01
 -14 -20 12 2.78 4.96
 -20 -16 12 0.36 5.27
 -16 -20 12 2.97 4.69
 -20 -18 12 -3.13 4.99
 -18 -20 12 -4.75 4.96
 -20 -20 12 0.82 5.14
 21 -1 -12 -2.58 3.7
 21 1 -12 -0.41 3.66
 21 -3 -12 4.61 3.81
 21 3 -12 9.17 3.87
 -21 -5 12 -2.93 4.19
 21 -5 -12 6.82 3.97
 21 5 -12 1.06 3.87
 21 -7 -12 9.67 4.09
 -21 -7 12 2.96 4.51
 -7 -21 12 0.69 5.51
 21 -9 -12 0.94 4.26
 -21 -9 12 -6.96 4.74
 -9 -21 12 2 5.58
 -21 -9 -12 3.34 3.75
 -21 -11 12 2.15 5.05
 -21 -11 -12 6.76 4.06
 -11 -21 12 7.21 4.8
 -21 -13 12 -1.08 5.27
 -13 -21 12 1.21 5.46
 -21 -15 12 4.61 5.23
 -15 -21 12 -1.02 4.48
 -21 -17 12 1.96 4.97
 -17 -21 12 -9.45 4.96
 -21 -19 12 -4.59 4.91
 -19 -21 12 -1.06 5.15
 -21 -21 12 7.17 4.74
 22 0 -12 2.1 3.75
 22 -2 -12 2.52 3.7
 22 2 -12 0.35 3.77
 -22 -4 12 -2.39 4.17
 22 -4 -12 1.76 3.89
 22 4 -12 2.03 3.81
 -22 -6 12 -2.71 4.46
 22 -6 -12 -0.68 3.99
 -6 -22 12 2.1 5.76
 -22 -8 12 4.33 4.73
 -8 -22 12 12.03 5.63
 -22 -10 12 0.48 4.86
 22 -10 -12 -1.03 4.39
 -10 -22 12 3.88 5.61
 -22 -10 -12 3.42 4.1
 -22 -12 12 -1.57 5.11
 -22 -12 -12 8.21 4.15
 -12 -22 12 -0.16 5.03
 -22 -14 12 1.8 5.43
 -14 -22 12 -8.89 4.84
 -22 -14 -12 -1.84 4.21
 -22 -16 12 1.27 5.1
 -16 -22 12 1.96 4.9
 -22 -18 12 -1.06 5.16
 -18 -22 12 -1.36 5.08
 -22 -20 12 -0.36 5.23
 -20 -22 12 -0.51 4.53
 -22 -22 12 8.22 4.58
 23 -1 -12 2.16 3.74
 23 1 -12 1.96 3.67
 23 -3 -12 -4.13 3.83
 23 3 -12 1.52 3.73
 23 -5 -12 -0.53 4.07
 -23 -5 12 0.76 4.27
 23 -7 -12 -9.12 4.06
 -23 -7 12 -1.94 4.65
 -7 -23 12 -7.7 4.91
 -23 -9 12 -5.41 4.75
 23 -9 -12 4.71 4.15
 -9 -23 12 2.61 5.09
 -23 -9 -12 -1.78 3.77
 23 -11 -12 7.63 4.47
 -23 -11 12 2.05 5.02
 -23 -11 -12 5.72 4.12
 -11 -23 12 0.36 5.46
 -23 -13 12 5.44 5.26
 -13 -23 12 -3.27 5.21
 -23 -13 -12 9.19 4.31
 -23 -15 12 6.38 5.23
 -23 -15 -12 4.47 4.42
 -15 -23 12 6.6 4.55
 -23 -17 12 1.21 4.93
 -17 -23 12 7.18 4.97
 -23 -17 -12 -6.14 4.31
 -23 -19 12 -1.68 4.81
 -23 -19 -12 -8.96 4.29
 -19 -23 12 -0.84 4.64
 -23 -21 12 2.41 4.65
 -21 -23 12 8.32 4.44
 24 0 -12 5.42 3.66
 24 -2 -12 -1.26 3.72
 24 2 -12 -6.02 3.8
 24 -4 -12 0.9 3.87
 24 4 -12 -1.78 3.77
 24 -6 -12 -0.26 4.19
 -24 -6 12 -1.7 4.36
 -6 -24 12 -0.68 4.92
 -24 -8 12 3.11 4.82
 24 -8 -12 0.86 4.2
 -8 -24 12 -9.36 4.72
 -24 -10 12 -6.89 4.91
 24 -10 -12 -0.18 4.26
 -10 -24 12 8.1 4.78
 -24 -10 -12 4.73 3.81
 -24 -12 12 -0.52 5.19
 24 -12 -12 -1.81 4.51
 -24 -12 -12 5.86 4.13
 -12 -24 12 -5.82 4.91
 -24 -14 12 0.14 5.24
 -24 -14 -12 0.5 4.27
 -14 -24 12 3.37 5.24
 -24 -16 12 6.64 5.14
 -16 -24 12 -1.41 4.35
 -24 -16 -12 3.36 4.31
 -24 -18 -12 4.49 4.43
 -24 -20 12 1.73 5
 -24 -20 -12 7.27 4.37
 -20 -24 12 6.56 4.39
 25 -1 -12 -3.18 3.63
 25 1 -12 0.79 3.76
 25 -3 -12 -0.94 3.78
 25 3 -12 0.51 3.67
 -25 -5 12 -0.96 4.46
 25 -5 -12 2.96 3.95
 -25 -7 12 -5.49 4.52
 25 -7 -12 4.92 4.21
 -7 -25 12 -6.98 4.74
 -25 -9 12 -6.65 4.84
 25 -9 -12 0.07 4.21
 -9 -25 12 -2.1 4.62
 -25 -11 12 2.85 4.96
 25 -11 -12 -5.73 4.28
 -11 -25 12 4.43 4.52
 -25 -11 -12 1.16 3.95
 25 -13 -12 1.2 4.57
 -25 -13 12 2.59 5.23
 -25 -13 -12 1.73 4.25
 -13 -25 12 -2.74 4.58
 -25 -15 12 -2.33 5.12
 25 -15 -12 4.3 4.42
 -25 -15 -12 4 4.39
 -15 -25 12 -4.11 5.12
 -25 -17 12 -0.53 5.16
 -17 -25 12 4.12 4.37
 -25 -17 -12 -2.03 4.41
 -25 -19 12 -2.38 4.76
 -25 -19 -12 9.3 4.3
 -19 -25 12 -7.73 4.86
 26 0 -12 3.65 3.69
 26 -2 -12 1.4 3.63
 26 2 -12 -4.99 3.64
 26 -4 -12 2.64 3.81
 26 -6 -12 -0.75 3.95
 -26 -6 12 -3.63 4.27
 -6 -26 12 -0.3 4.89
 26 -8 -12 6.01 4.21
 -26 -8 12 -4.3 4.61
 -8 -26 12 1.63 4.46
 26 -10 -12 -0.89 4.22
 -26 -10 12 -7.94 4.8
 -10 -26 12 -2.29 4.46
 26 -12 -12 -4.3 4.23
 -26 -12 12 -0.35 5.14
 -12 -26 12 1.66 4.34
 -26 -14 12 -6.24 5.27
 26 -14 -12 -4.96 4.46
 -26 -14 -12 3.99 4.31
 -14 -26 12 -1.99 4.4
 26 -16 -12 -1.04 4.51
 -26 -16 -12 1.39 4.41
 -16 -26 12 7.37 5.04
 -26 -18 12 1.44 5.09
 -26 -18 -12 8.21 4.36
 -18 -26 12 0.78 4.31
 27 -1 -12 -3.02 3.61
 27 1 -12 0.1 3.53
 27 -3 -12 3.31 3.74
 27 -5 -12 7.72 3.85
 27 -7 -12 -2.08 3.98
 -7 -27 12 -2.37 4.57
 27 -9 -12 6.36 4.27
 -27 -9 12 -1.39 4.67
 -9 -27 12 0.55 4.39
 -27 -11 12 -0.3 4.97
 27 -11 -12 0.98 4.29
 -27 -11 -12 2.86 3.78
 -11 -27 12 -2.73 4.33
 -27 -13 12 9.21 5.14
 27 -13 -12 3.06 4.22
 -27 -13 -12 3.26 4.11
 -13 -27 12 -0.92 4.19
 -27 -15 12 -1.83 5.25
 -27 -15 -12 -0.98 4.4
 -15 -27 12 5.7 4.26
 28 0 -12 0.11 3.49
 28 -2 -12 5.71 3.58
 28 -4 -12 5.43 3.78
 28 -6 -12 0.46 3.81
 -6 -28 12 -5.24 5.22
 -28 -8 12 0.55 4.44
 -8 -28 12 0.92 4.47
 -28 -10 12 3.53 4.78
 -10 -28 12 -3.04 4.23
 -28 -12 12 6.39 4.98
 -12 -28 12 0.62 4.16
 -28 -12 -12 -4.46 5.29
 -28 -14 12 -1.46 5.03
 -14 -28 12 3.73 4.08
 29 -1 -12 7.48 3.84
 -7 -29 12 -0.84 5.02
 -9 -29 12 3.76 4.36
 -29 -11 12 3.93 4.74
 -11 -29 12 7.94 4.06
 -6 -30 12 1.9 4.13
 -8 -30 12 -1.55 4.78
 -30 -10 12 -5.43 4.36
 -10 -30 12 5.05 4.3
 -5 -31 12 -8.15 4.71
 0 -1 13 132.38 7.29
 1 0 -13 113.18 7.22
 -1 0 -13 116.28 6.61
 -2 1 -13 85.94 5.41
 1 2 -13 83.09 5.11
 1 -2 13 81.2 4.87
 -2 -1 13 77.06 6.42
 2 -1 -13 84.01 6.31
 -1 -2 13 85.04 5.06
 2 1 -13 77.67 6.3
 2 -3 13 264.5 10.76
 -3 -2 13 236.74 11.07
 3 -2 13 244.44 10.59
 3 2 -13 238.7 11.11
 -2 3 -13 266.39 10.48
 1 4 -13 3.45 3.98
 4 -1 -13 10.12 3.86
 1 -4 13 8.53 3.99
 -4 -1 13 11.39 4.37
 -4 1 -13 6.34 2.9
 -1 -4 13 8.97 4.09
 4 1 -13 4.6 4.62
 5 0 -13 -4.2 4.02
 -5 0 -13 -1.2 2.71
 0 -5 13 -5.67 4.06
 2 5 -13 5.44 4.12
 2 -5 13 4.73 3.8
 -5 2 -13 3.14 2.67
 -5 -2 13 -0.6 4.14
 5 2 -13 -4.39 3.89
 -2 -5 13 -5.94 4.14
 5 -2 13 1.22 3.01
 4 -5 13 28.6 3.91
 -5 -4 13 27.95 4.75
 4 5 -13 19.38 4.44
 -4 -5 13 29.95 5.07
 5 4 -13 26.95 4.22
 5 -4 13 31.34 3.45
 6 -1 -13 9.08 4.25
 1 -6 13 0.79 3.92
 -6 1 -13 -0.67 2.65
 -6 -1 13 -1.16 4.49
 1 6 -13 -4.14 4.19
 6 1 -13 2.66 4.27
 -1 -6 13 10.44 4.66
 -6 -3 13 2.41 4.16
 3 -6 13 -1.23 3.88
 3 6 -13 4.89 4.04
 6 -3 13 6.88 2.76
 -3 -6 13 1.36 4.71
 6 3 -13 2.5 4.09
 5 -6 13 140.74 7.16
 -6 -5 13 140.82 8.34
 5 6 -13 119.85 8.04
 6 5 -13 135.93 7.81
 6 -5 13 135.18 6.85
 -5 -6 13 149.81 8.2
 7 0 -13 156.28 8.24
 0 -7 13 170.46 8.55
 -7 0 -13 145.33 6.75
 2 -7 13 167 8.4
 2 7 -13 151.32 8.5
 7 -2 -13 145.88 8.5
 -7 -2 13 149.54 8.63
 -2 -7 13 147.6 8.61
 7 2 -13 151.76 8.15
 4 -7 13 65.61 4.7
 -7 -4 13 63.17 4.84
 4 7 -13 64.31 5.12
 7 4 -13 65 5.03
 7 -4 13 56.89 4.55
 6 -7 13 5.04 3.48
 6 7 -13 1.24 4.76
 -7 -6 13 -3.29 4.76
 7 -6 13 3.43 3.17
 -6 -7 13 0.43 4.45
 7 6 -13 1.53 4.32
 8 -1 -13 -0.86 4.27
 -8 -1 13 2.6 3.9
 1 -8 13 0.63 4.29
 8 1 -13 2.87 4.02
 -1 -8 13 3.18 4.22
 3 -8 13 89.94 5.61
 -8 -3 13 82.5 5.57
 8 3 -13 78.44 5.45
 -8 -5 13 15.91 4.88
 5 8 -13 8.14 4.81
 8 5 -13 3.6 4.29
 -5 -8 13 9.59 4.52
 7 8 -13 26.11 4.67
 7 -8 13 45.2 4.12
 -8 -7 13 34.98 4.54
 8 -7 13 41.38 3.55
 -7 -8 13 33.29 4.74
 8 7 -13 29.36 4.57
 0 -9 13 168.1 9.26
 9 0 -13 151.49 8.32
 2 -9 13 165.81 8.91
 9 -2 -13 159.5 8.62
 -9 -2 13 147.99 8.32
 -2 -9 13 149.21 8.75
 9 2 -13 154.52 8.02
 4 -9 13 41.07 4.78
 -9 -4 13 40.27 4.58
 9 4 -13 39.63 4.36
 -4 -9 13 53.47 5.12
 6 -9 13 87.2 6.73
 -9 -6 13 87.07 7
 -6 -9 13 98.41 7.42
 9 6 -13 87.89 7.33
 8 -9 13 25.44 3.94
 -9 -8 13 26.62 4.77
 -8 -9 13 23.55 5.12
 9 8 -13 32.12 4.72
 9 -8 13 27.59 3.59
 10 -1 -13 24.59 4.03
 1 -10 13 15.04 5.13
 -1 -10 13 17.12 5.15
 10 1 -13 19.07 4.14
 3 -10 13 0.43 4.68
 -10 -3 13 -5.7 4.16
 10 -3 -13 3.36 3.98
 10 3 -13 3.77 3.92
 -3 -10 13 1.72 5.04
 -10 -5 13 36.21 4.62
 10 5 -13 31.97 4.24
 -5 -10 13 33.71 4.76
 -10 -7 13 18.67 4.39
 7 -10 13 17.68 4.15
 10 -7 13 18.57 2.97
 10 7 -13 21.06 4.47
 -7 -10 13 18.45 4.66
 -10 -9 13 29.08 4.51
 9 -10 13 41.14 4.11
 10 -9 13 40.02 3.82
 -9 -10 13 37.24 5.1
 11 -4 -13 853.52 33.27
 -11 -4 13 912.41 33.39
 11 4 -13 861.85 33.23
 -11 -6 13 219.78 10.63
 -6 -11 13 224.6 11.1
 11 6 -13 238.83 10.48
 -11 -8 13 134.1 8.19
 -8 -11 13 134.17 8.64
 11 8 -13 124.67 8.4
 -11 -10 13 15.28 4.54
 12 -1 -13 0.84 3.85
 -12 -1 13 -3.18 4.04
 1 -12 13 6.19 4.87
 -1 -12 13 -4.75 5.11
 12 1 -13 4.61 3.76
 -12 -3 13 21.4 4.15
 12 -3 -13 13.51 4.11
 -3 -12 13 18.85 5.06
 -12 -5 13 2.94 4.23
 12 5 -13 1.14 4.02
 -5 -12 13 9.77 5.22
 -12 -7 13 7.16 4.64
 -7 -12 13 9.17 5.05
 12 7 -13 15.37 4.36
 -12 -9 13 11.99 4.32
 -9 -12 13 13.95 4.86
 -12 -11 13 2.32 4.74
 -11 -12 13 7.94 4.41
 0 -13 13 -0.49 5.43
 13 0 -13 6.47 3.87
 -13 -2 13 6.04 3.9
 13 -2 -13 -0.63 3.87
 13 2 -13 8.78 3.76
 -2 -13 13 -5.56 5.52
 -13 -4 13 -0.59 4.18
 13 -4 -13 7.29 4.07
 13 4 -13 -3.14 3.77
 -4 -13 13 4.92 5.25
 -13 -6 13 24.21 4.44
 -6 -13 13 28.1 4.82
 13 6 -13 33.49 4.41
 13 8 -13 23.6 4.81
 -8 -13 13 26.07 5.53
 -13 -10 13 16.96 4.41
 -10 -13 13 22.62 4.8
 -13 -12 13 5.47 4.34
 -12 -13 13 8.41 4.39
 -14 -1 13 20.44 4.08
 -1 -14 13 12.7 5.19
 14 1 -13 13.97 3.87
 -14 -3 13 30.27 4.4
 14 -3 -13 27.87 4.11
 14 3 -13 27.08 4.11
 -3 -14 13 31.15 5.5
 -14 -5 13 45.5 4.77
 -5 -14 13 66.12 6.2
 14 5 -13 42.63 4.54
 -14 -7 13 14.16 4.45
 -7 -14 13 11.67 4.86
 14 7 -13 14.29 4.4
 -14 -9 13 38.93 4.85
 -9 -14 13 56.7 5.9
 -14 -11 13 22.75 4.89
 -11 -14 13 26.83 4.67
 -14 -13 13 45.27 5.05
 -13 -14 13 44.05 4.99
 15 0 -13 299.67 12.59
 -15 -2 13 201.67 9.67
 15 -2 -13 197.8 9.52
 -2 -15 13 209.06 10.62
 15 2 -13 200.17 9.44
 -15 -4 13 170.61 8.56
 15 -4 -13 151 8.25
 15 4 -13 153.34 8.1
 -4 -15 13 150.27 9.62
 -15 -6 13 43.26 4.56
 15 -6 -13 32.17 4.28
 15 6 -13 33.62 4.39
 -6 -15 13 41.96 5.64
 -15 -8 13 17.66 4.53
 -8 -15 13 12.38 4.74
 -15 -10 13 7.59 4.33
 -10 -15 13 9.97 5.26
 -15 -12 13 2.62 4.51
 -12 -15 13 -0.06 4.64
 -15 -14 13 -0.86 4.68
 -14 -15 13 4.52 4.56
 16 -1 -13 1.26 3.74
 16 1 -13 0.91 3.57
 16 -3 -13 13.25 4.04
 -16 -3 13 10.01 4.08
 16 3 -13 11.93 3.85
 -3 -16 13 11.55 5.91
 16 -5 -13 25.62 4.13
 -16 -5 13 34.82 4.5
 -5 -16 13 28.84 5.88
 -16 -7 13 17.34 4.34
 16 -7 -13 18.69 3.91
 16 7 -13 18.89 4.39
 -7 -16 13 14.48 5.09
 -16 -9 13 53.53 5.28
 -16 -11 13 47.5 5.34
 -11 -16 13 48.68 5.39
 -16 -13 13 39.89 5.19
 -13 -16 13 45.13 5.57
 -16 -15 13 3.35 4.87
 -15 -16 13 -2.33 4.8
 17 0 -13 64.13 4.63
 17 -2 -13 52.13 4.61
 17 2 -13 59.65 4.39
 -17 -4 13 48.75 4.77
 17 -4 -13 39.24 4.29
 17 4 -13 46.32 4.37
 -4 -17 13 41.95 5.77
 17 -6 -13 50.88 4.49
 -17 -6 13 40.8 4.79
 -6 -17 13 32.28 5.37
 17 6 -13 44.31 4.79
 -17 -8 13 12.75 4.63
 -8 -17 13 24.45 5.2
 -17 -10 13 4.85 4.72
 -10 -17 13 17.76 5.42
 -17 -12 13 5.36 4.64
 -12 -17 13 1.6 4.7
 -17 -14 13 -3.97 4.93
 -14 -17 13 -0.05 4.95
 -17 -16 13 -5.02 4.71
 -16 -17 13 -4.79 5.22
 18 -1 -13 1.71 3.78
 18 1 -13 0.91 3.64
 18 -3 -13 26.18 4.23
 -18 -3 13 35 4.38
 18 3 -13 36.73 4.05
 -18 -5 13 69.93 5.21
 18 -5 -13 67.75 4.68
 18 5 -13 48.61 4.62
 -5 -18 13 47.06 5.71
 18 -7 -13 62.84 4.97
 -18 -7 13 60.55 5.04
 -7 -18 13 55.72 6.05
 18 7 -13 53.92 4.91
 -18 -9 13 83.74 6.1
 -9 -18 13 98.75 6.81
 -11 -18 13 53.7 5.36
 -18 -13 13 51.87 5.5
 -13 -18 13 58.15 5.86
 -18 -15 13 24.04 5.03
 -15 -18 13 16.73 4.89
 -18 -17 13 -5.29 5.11
 -17 -18 13 -2.26 4.68
 19 0 -13 0.67 3.58
 19 -2 -13 -3.37 3.91
 19 2 -13 6.59 3.64
 -19 -4 13 0.9 4.17
 19 -4 -13 -3.93 3.86
 -4 -19 13 -2.6 5.76
 19 4 -13 4 4.07
 19 -6 -13 1.28 3.89
 -19 -6 13 4.93 4.27
 -6 -19 13 -3.63 5.4
 19 6 -13 1 4.03
 -19 -8 13 0.47 4.55
 19 -8 -13 2.04 4.15
 -8 -19 13 -5.03 5.35
 -19 -10 13 0.48 4.83
 -10 -19 13 3.41 4.94
 -19 -12 13 6.31 4.78
 -12 -19 13 -0.38 5.56
 -19 -14 13 7.27 5.08
 -14 -19 13 8.28 4.57
 -19 -16 13 3.95 4.86
 -16 -19 13 4.16 5.05
 -18 -19 13 8.48 5.43
 20 -1 -13 1.67 3.71
 20 1 -13 3.33 3.65
 -20 -3 13 1.46 4.18
 20 -3 -13 4.31 3.94
 20 3 -13 10.85 3.92
 -20 -5 13 25.43 4.48
 20 -5 -13 14.93 4.13
 -5 -20 13 22.04 5.68
 20 5 -13 20.67 4.02
 20 -7 -13 21.62 4.24
 -20 -7 13 29.4 4.79
 -7 -20 13 22.04 5.61
 -20 -7 -13 33.39 3.64
 20 -9 -13 34.4 4.63
 -20 -9 13 37.73 5.1
 -20 -9 -13 33.72 4.21
 -9 -20 13 40.99 6.08
 -11 -20 13 10.72 5.26
 -20 -13 13 12.12 5.02
 -13 -20 13 6.47 4.85
 -20 -15 13 6.01 5.01
 -20 -17 13 -5.62 5.12
 -17 -20 13 1.39 5.02
 -20 -19 13 4.01 5.06
 -19 -20 13 10.88 4.65
 21 0 -13 60.94 4.6
 21 -2 -13 52.81 4.35
 21 2 -13 47.76 4.25
 -21 -4 13 24.72 4.35
 21 -4 -13 18.13 4.18
 21 4 -13 24.41 4.11
 -21 -6 13 6.31 4.55
 21 -6 -13 7.67 4.13
 21 6 -13 6.83 4.02
 -6 -21 13 15.35 5.27
 -21 -8 13 8.45 4.68
 -8 -21 13 7.89 4.96
 -21 -8 -13 -0.08 3.64
 21 -10 -13 2.64 4.26
 -21 -10 13 -6.66 4.95
 -10 -21 13 -4.46 4.91
 -21 -10 -13 2.96 3.9
 -21 -12 13 9.46 5.1
 -12 -21 13 12.08 5.48
 -21 -14 13 5.36 5.11
 -14 -21 13 8.08 5.03
 -21 -16 13 5.11 4.88
 -16 -21 13 -0.54 5.17
 -21 -18 13 -1.73 4.92
 -18 -21 13 -4.87 4.5
 -21 -20 13 -2.79 4.74
 -20 -21 13 1.66 4.83
 22 -1 -13 -0.32 3.83
 22 1 -13 7.58 3.71
 22 -3 -13 -1.78 3.8
 22 3 -13 0.92 3.94
 -22 -5 13 6.35 4.43
 22 -5 -13 8.06 4.1
 22 5 -13 8.15 3.94
 -5 -22 13 6.1 5.63
 -22 -7 13 3.59 4.76
 22 -7 -13 3.41 4.18
 -7 -22 13 12.82 5.61
 22 -9 -13 6.07 4.21
 -22 -9 13 11.65 4.78
 -9 -22 13 10.04 5.46
 -22 -9 -13 0.75 3.81
 -22 -11 13 9.91 5.11
 -11 -22 13 2.39 5.01
 -22 -11 -13 3.02 4.01
 -22 -13 13 2.27 5.09
 -22 -13 -13 7.91 4.24
 -13 -22 13 5.49 4.77
 -22 -15 13 -3.99 5.04
 -15 -22 13 -0.12 5.14
 -22 -17 13 2.02 5.22
 -17 -22 13 2.06 4.53
 -22 -19 13 0.74 4.94
 -19 -22 13 4.13 4.83
 -22 -21 13 4.18 5.03
 -21 -22 13 8.76 5.19
 23 0 -13 15.91 3.85
 23 -2 -13 15.8 3.93
 23 2 -13 14.95 3.91
 23 -4 -13 2.17 3.96
 23 4 -13 11 3.96
 23 -6 -13 5.67 4.15
 -23 -6 13 8.41 4.53
 -6 -23 13 8.37 5.77
 -23 -8 13 2.75 4.89
 23 -8 -13 0.99 4.12
 -8 -23 13 9.43 5.64
 23 -10 -13 8.2 4.19
 -23 -10 13 12.4 5
 -10 -23 13 17.02 5.76
 23 -12 -13 5.45 4.42
 -23 -12 13 4.24 5.3
 -23 -12 -13 5.01 4.17
 -12 -23 13 4.38 5.34
 -23 -14 13 3.59 5.11
 -14 -23 13 1.35 4.64
 -23 -16 13 7.64 5.05
 -23 -16 -13 5.78 4.33
 -16 -23 13 2.19 5.07
 -23 -18 13 -1.82 5.01
 -18 -23 13 11.21 4.59
 -23 -18 -13 -0.98 4.34
 -20 -23 13 9.84 5.1
 24 -1 -13 3.66 3.86
 24 1 -13 3.87 3.81
 24 -3 -13 5.67 3.82
 24 3 -13 0.08 3.8
 -24 -5 13 -1.33 4.25
 24 -5 -13 -1.91 4.17
 -5 -24 13 -10.52 5.86
 -24 -7 13 -1.69 4.61
 24 -7 -13 1.39 4.28
 -7 -24 13 3.63 5.41
 24 -9 -13 -1.27 4.32
 -24 -9 13 2.25 4.87
 -24 -9 -13 -1.99 3.51
 -9 -24 13 -6.89 5.07
 -24 -11 13 7.62 4.97
 24 -11 -13 7.49 4.22
 -11 -24 13 -0.87 5.12
 -24 -11 -13 2.28 3.95
 -24 -13 13 -0.45 5.35
 24 -13 -13 -2.59 4.49
 -24 -13 -13 -0.19 4.17
 -13 -24 13 2.71 5.33
 -24 -15 13 -0.58 5.06
 -24 -15 -13 6.25 4.33
 -15 -24 13 1.18 4.89
 -24 -17 13 10.79 5.4
 -24 -17 -13 7.61 4.45
 -17 -24 13 2.38 4.53
 -24 -19 13 4.29 5.06
 -24 -19 -13 7.51 4.5
 -19 -24 13 2.62 4.73
 25 0 -13 52.57 4.37
 25 -2 -13 49.38 4.43
 25 2 -13 42.9 4.26
 25 -4 -13 27.14 4.2
 25 4 -13 26.65 4.03
 25 -6 -13 11.17 4.24
 -25 -6 13 11.2 4.47
 -6 -25 13 17.82 5.48
 -25 -8 13 8.31 4.76
 25 -8 -13 2.28 4.27
 -8 -25 13 4.39 4.78
 -25 -10 13 1.23 4.97
 25 -10 -13 -0.4 4.27
 -10 -25 13 4.78 4.62
 -25 -12 13 4.94 5.15
 25 -12 -13 8.83 4.21
 -12 -25 13 1.88 4.62
 -25 -12 -13 8.81 4.16
 -25 -14 13 4.39 5.5
 25 -14 -13 -0.79 4.6
 -14 -25 13 2.44 5.04
 -25 -16 13 -1.9 5.45
 -16 -25 13 6.03 4.88
 -25 -16 -13 3.52 4.37
 -25 -18 13 2.41 4.98
 -25 -18 -13 3.36 4.31
 -18 -25 13 5.59 4.31
 26 -1 -13 3.53 3.68
 26 1 -13 -1.08 3.78
 26 -3 -13 3.93 3.86
 26 3 -13 1.42 3.77
 26 -5 -13 12.51 4.01
 -5 -26 13 13.2 5.51
 26 -7 -13 18.88 4.41
 -26 -7 13 5.24 4.52
 -7 -26 13 12.29 4.93
 -26 -9 13 8.15 4.84
 -9 -26 13 10.17 4.76
 26 -11 -13 18.73 4.41
 -26 -11 13 14.31 5.13
 -11 -26 13 7.77 4.45
 26 -13 -13 6.65 4.21
 -26 -13 -13 -0.05 4.16
 -13 -26 13 2.52 4.35
 -26 -15 13 7.96 5.32
 26 -15 -13 -0.66 4.49
 -15 -26 13 7.24 4.68
 -26 -17 13 13.23 5.26
 -17 -26 13 -0.62 4.85
 -26 -17 -13 8.42 4.36
 27 0 -13 17.51 3.89
 27 -2 -13 13.27 3.77
 27 2 -13 15.68 3.79
 27 -4 -13 10.79 3.96
 27 -6 -13 -0.06 4.02
 -6 -27 13 -0.38 5.47
 -27 -8 13 -2.07 4.55
 27 -8 -13 4.01 4.27
 -8 -27 13 6.11 4.64
 -27 -10 13 2.01 4.84
 27 -10 -13 5.97 4.35
 -10 -27 13 11.11 4.44
 -27 -12 13 14.59 5.27
 27 -12 -13 7.2 4.29
 -27 -12 -13 15.7 4.01
 -12 -27 13 12.24 4.4
 -27 -14 13 14.41 5.22
 27 -14 -13 22.2 4.62
 -14 -27 13 9.96 4.31
 -27 -14 -13 17.43 4.29
 -27 -16 13 12.72 5.23
 -27 -16 -13 9.03 5.85
 -16 -27 13 7.13 4.42
 28 -1 -13 0.91 3.69
 28 1 -13 3.41 3.58
 28 -3 -13 1.19 3.7
 28 -5 -13 -5.07 3.82
 -5 -28 13 -8.63 4.81
 28 -7 -13 4.96 3.93
 -7 -28 13 -4.82 5.05
 28 -9 -13 11.29 4.6
 -9 -28 13 12.56 4.5
 -28 -11 13 -1.26 4.85
 -11 -28 13 3.61 4.21
 -28 -13 13 9.37 5.05
 29 0 -13 83.85 5.85
 29 -2 -13 56.66 4.48
 -4 -29 13 29.46 5.02
 -6 -29 13 11.17 4.84
 -29 -8 13 -0.17 4.37
 -8 -29 13 1.89 4.87
 -29 -10 13 2.74 4.59
 -29 -12 13 1.57 4.88
 -12 -29 13 1.79 4.11
 -5 -30 13 -6.49 4.36
 -7 -30 13 -1.25 4.69
 -30 -9 13 -0.64 4.29
 -9 -30 13 3.6 4.64
 -4 -31 13 -6.01 4.43
 0 0 -14 -4.4 3.85
 1 -1 14 -8.71 3.76
 -1 -1 14 -6.27 3.74
 -1 1 -14 -4.13 3.04
 1 1 -14 -1.87 3.46
 0 2 -14 173.58 8.43
 -2 2 -14 -2.87 3.06
 -2 -2 14 -4.91 4.46
 2 -2 14 -0.23 3.55
 2 2 -14 -2.75 3.82
 3 -1 -14 10.13 4
 1 -3 14 0.66 3.93
 -3 -1 14 3.37 4.29
 -3 1 -14 4.74 3.13
 1 3 -14 10.48 3.67
 -1 -3 14 1.16 4.08
 3 1 -14 3.66 4.03
 -1 3 -14 6.32 3.19
 -3 -3 14 21.71 4.53
 3 3 -14 31.37 4.17
 3 -3 14 30.78 3.64
 4 0 -14 85.98 5.55
 0 4 -14 98.98 6.73
 0 -4 14 97.14 5.7
 -4 0 -14 96.58 5.83
 2 -4 14 55.17 4.47
 -4 2 -14 63.93 3.88
 -4 -2 14 61.6 5.09
 2 4 -14 47.51 4.37
 -2 -4 14 61.39 5.23
 4 -2 14 52.54 3.91
 4 2 -14 47.19 4.85
 -4 -4 14 -7.31 4.33
 4 -4 14 0.86 3.33
 4 4 -14 2.96 4.22
 1 5 -14 2 4.2
 -5 -1 14 4.97 4.47
 -5 1 -14 1.46 2.74
 5 -1 -14 -4.31 4.05
 5 1 -14 1.02 3.86
 -1 -5 14 -4.66 4.45
 -5 -3 14 37.09 4.36
 3 -5 14 33.09 3.98
 -5 3 -14 39.27 3.24
 3 5 -14 35.78 4.38
 -3 -5 14 36.75 4.59
 5 3 -14 34.47 4.05
 5 -3 14 34.83 3.51
 -5 -5 14 48.94 4.92
 5 -5 14 57.54 4.09
 0 -6 14 111.19 7.21
 6 0 -14 102.92 7.12
 -6 0 -14 108.4 5.7
 -6 -2 14 61.17 4.96
 6 -2 -14 71.92 4.86
 2 6 -14 68.32 4.91
 6 2 -14 54.29 4.69
 4 -6 14 52.64 4.32
 -6 4 -14 48.32 3.63
 -6 -4 14 49.1 4.87
 6 4 -14 36.38 4.6
 -4 -6 14 41.19 4.76
 6 -4 14 44.87 3.52
 6 6 -14 -6.03 4.52
 -6 -6 14 -2.41 4.44
 6 -6 14 -5.41 3.47
 -7 -1 14 -2.2 4.2
 7 -1 -14 3.36 3.89
 1 -7 14 -5.43 4.29
 -7 1 -14 0.73 2.49
 1 7 -14 -1.4 4.1
 -1 -7 14 -4.06 4.41
 7 1 -14 9.86 4.18
 3 -7 14 38.91 4.38
 -7 3 -14 32.21 3.01
 -7 -3 14 32.12 4.35
 3 7 -14 31.72 4.76
 7 3 -14 34.32 4.15
 -3 -7 14 38.96 4.91
 5 -7 14 26.96 3.91
 -7 -5 14 17.15 4.43
 5 7 -14 18.68 4.73
 7 5 -14 15.71 4.01
 7 -5 14 27.7 3.13
 -7 -7 14 46.77 4.79
 7 7 -14 42.82 4.88
 0 -8 14 12.84 4.69
 8 0 -14 3.01 4.02
 8 -2 -14 36.69 4.71
 2 -8 14 32.12 4.49
 -8 -2 14 35.87 4.7
 8 2 -14 39.46 4.36
 -2 -8 14 28.72 4.88
 4 -8 14 -0.53 3.97
 4 8 -14 3.38 4.8
 -8 -4 14 5.82 4.17
 8 4 -14 4.3 4.1
 -4 -8 14 6.29 4.37
 6 8 -14 15.32 4.44
 -8 -6 14 15.38 4.46
 8 -6 14 16.39 3.12
 8 6 -14 18.51 4.76
 8 8 -14 3.34 4.86
 8 -8 14 -4.88 3.41
 -8 -8 14 3.35 4.56
 1 -9 14 -0.3 4.53
 9 -1 -14 -6.32 4.02
 -9 -1 14 -6.01 4.05
 -1 -9 14 -3.55 4.89
 9 1 -14 1.54 4.22
 -9 -3 14 2.87 4.23
 9 -3 -14 8.18 4
 9 3 -14 7.98 4.29
 -3 -9 14 16.44 4.74
 5 -9 14 1.46 4.15
 -9 -5 14 -0.13 4.33
 -5 -9 14 -3.28 5.14
 9 5 -14 2.75 4.15
 -9 -7 14 2.24 3.99
 7 -9 14 3.28 4
 -7 -9 14 5.59 4.36
 9 7 -14 0.94 4.41
 9 -7 14 5.26 2.97
 9 -9 14 4.92 3.58
 -9 -9 14 10.1 4.8
 0 -10 14 296.82 13.13
 10 0 -14 288.47 12.59
 -10 -2 14 119.35 7.83
 2 -10 14 112.08 8.11
 10 -2 -14 134.4 7.87
 10 2 -14 123.19 7.27
 -2 -10 14 136.22 8.22
 4 -10 14 128.52 7.77
 -10 -4 14 115.48 7.78
 10 4 -14 103.33 7.19
 -4 -10 14 128.37 8.36
 6 -10 14 22.4 4.41
 -10 -6 14 21.38 4.94
 10 6 -14 33.07 4.35
 -6 -10 14 23.05 4.59
 -10 -8 14 42.27 4.72
 8 -10 14 43.24 4.37
 10 -8 14 44.59 3.53
 10 8 -14 48.8 5.21
 -8 -10 14 36.26 4.76
 -10 -10 14 2.17 4.52
 10 -10 14 -2.03 3.58
 -11 -1 14 -3.1 4.21
 1 -11 14 0.24 4.74
 11 -1 -14 0.38 4.18
 11 1 -14 2.47 3.92
 -1 -11 14 1.81 4.91
 -11 -3 14 54.48 4.78
 3 -11 14 56.46 5.44
 11 -3 -14 43.42 4.56
 -3 -11 14 46.81 5.39
 5 -11 14 36.58 4.82
 -11 -5 14 33.83 4.47
 11 5 -14 36.46 4.46
 -11 -7 14 75.92 5.7
 7 -11 14 71.67 5.15
 11 7 -14 61.35 5.25
 11 -7 14 69.7 4.35
 -7 -11 14 79.85 5.84
 9 -11 14 22.37 4.01
 -11 -9 14 11.22 4.25
 -9 -11 14 14.49 4.34
 11 -9 14 14.56 3.31
 -11 -11 14 43.75 5.27
 11 -11 14 59.26 4.3
 0 -12 14 49.56 5.41
 12 0 -14 53.41 4.6
 12 -2 -14 44.51 4.57
 2 -12 14 44.49 5.57
 -12 -2 14 46.48 4.55
 -2 -12 14 38.14 5.15
 12 2 -14 43.02 4.44
 4 -12 14 15.51 4.75
 12 -4 -14 14.63 4.13
 -4 -12 14 20.96 4.68
 12 4 -14 6.59 3.99
 -12 -6 14 -0.39 4.16
 6 -12 14 8.75 4.48
 -6 -12 14 5.86 4.78
 12 6 -14 5.78 3.99
 -12 -8 14 7.76 4.2
 -8 -12 14 11.87 4.86
 12 8 -14 2.62 4.39
 -12 -10 14 9.33 4.29
 -10 -12 14 15.22 4.77
 12 -10 14 11.3 3.34
 -12 -12 14 1.39 4.24
 13 -1 -14 8.44 3.92
 -13 -1 14 0.41 3.86
 1 -13 14 -0.89 5.21
 13 1 -14 -0.31 3.91
 -1 -13 14 -1.48 5.71
 13 -3 -14 2.63 3.9
 -13 -3 14 -0.17 4.05
 3 -13 14 1.77 4.86
 -3 -13 14 -7.67 5.67
 13 3 -14 3.86 3.85
 13 -5 -14 -0.12 3.85
 -5 -13 14 -0.19 5.47
 13 5 -14 -6.68 3.83
 -13 -7 14 -0.62 4.3
 13 7 -14 -0.8 4.2
 -7 -13 14 -1.57 4.52
 -9 -13 14 10.71 5.06
 -13 -11 14 11.21 4.49
 13 -11 14 9.24 3.32
 -11 -13 14 1 4.25
 -13 -13 14 7.59 4.69
 0 -14 14 76.75 6.27
 14 0 -14 64.32 4.86
 -14 -2 14 78.32 5
 14 -2 -14 65.97 4.88
 -2 -14 14 60.63 5.88
 14 2 -14 59.87 4.71
 -14 -4 14 15.91 4.39
 14 -4 -14 13.74 3.94
 -4 -14 14 17.02 5.08
 14 4 -14 12.89 3.89
 -14 -6 14 35.72 4.68
 14 6 -14 24.6 4.42
 -6 -14 14 32.48 5.57
 -14 -8 14 9.2 4.55
 -8 -14 14 7.51 4.85
 14 8 -14 7.31 4.52
 -14 -10 14 4.09 4.57
 -10 -14 14 2.03 4.55
 -14 -12 14 1.87 4.56
 14 -12 14 4.43 3.37
 -12 -14 14 -0.6 4.6
 -14 -14 14 6.78 5.06
 1 -15 14 7.32 5.68
 15 -1 -14 -0.61 3.78
 15 1 -14 -5.07 3.62
 -1 -15 14 -3.25 5.16
 15 -3 -14 -3.19 3.97
 -15 -3 14 -9.11 4.02
 15 3 -14 0.81 3.78
 -3 -15 14 -5.59 4.79
 15 -5 -14 7.43 4.08
 -15 -5 14 0.06 4.14
 -5 -15 14 -3.52 5.19
 15 5 -14 6.95 4.15
 -15 -7 14 4.7 4.32
 15 7 -14 14.05 4.37
 -7 -15 14 10.91 5.26
 -15 -9 14 -2.73 4.74
 -9 -15 14 1.3 4.92
 -15 -11 14 11.53 4.41
 15 -11 14 7.27 3.01
 -11 -15 14 11.89 4.71
 -15 -13 14 10.38 5.02
 -13 -15 14 0.11 4.58
 -15 -15 14 8.96 5.18
 0 -16 14 13.92 5.95
 16 -2 -14 -0.83 3.85
 -16 -2 14 -0.91 4.02
 -2 -16 14 -4.64 5.13
 16 2 -14 5.85 3.96
 16 -4 -14 4.47 4.07
 16 4 -14 -1.72 3.84
 -4 -16 14 2.47 5.28
 -16 -6 14 -4.85 4.19
 16 -6 -14 1.33 3.92
 16 6 -14 0.12 4.21
 -6 -16 14 5.07 5.2
 -16 -8 14 -4.52 4.73
 -8 -16 14 -9.95 5.54
 -16 -10 14 0.82 4.62
 -10 -16 14 1.98 4.74
 -16 -12 14 -0.69 4.83
 -12 -16 14 0.46 5.03
 -16 -14 14 0.4 5.07
 -14 -16 14 -4.22 4.52
 -16 -16 14 1.27 4.81
 17 -1 -14 -2.31 3.86
 17 1 -14 2.21 3.63
 -1 -17 14 3.89 5.71
 17 -3 -14 2.47 3.87
 -17 -3 14 -5.8 4.14
 17 3 -14 -3.57 3.69
 -3 -17 14 5.21 5.82
 -17 -5 14 8.99 4.27
 17 -5 -14 -1.62 3.8
 -5 -17 14 3.45 5.54
 17 5 -14 0.5 3.95
 -17 -7 14 -0.83 4.51
 17 -7 -14 4.22 4
 17 7 -14 1.88 4.44
 -7 -17 14 4.35 5.78
 -17 -9 14 6.54 4.8
 -9 -17 14 -2.32 5.18
 -17 -11 14 3.37 4.51
 -11 -17 14 -2.03 4.69
 -17 -13 14 -3.47 4.96
 -13 -17 14 -5.72 5.08
 -17 -15 14 1.73 5.3
 -15 -17 14 0.17 4.91
 -17 -17 14 -7.62 4.6
 18 0 -14 42.69 4.19
 -2 -18 14 24.28 5.45
 18 2 -14 26.32 4.07
 -18 -4 14 15.19 4.3
 18 -4 -14 16.85 4.15
 -4 -18 14 16.8 5.48
 18 4 -14 6.82 4.02
 18 -6 -14 11.11 4.04
 -6 -18 14 13.55 5.52
 18 6 -14 5.32 4.02
 18 -8 -14 -0.83 4.03
 -18 -8 14 4.77 4.64
 -8 -18 14 4.49 5.39
 -18 -10 14 1.33 4.95
 -10 -18 14 9.21 5.01
 -18 -12 14 0.9 4.85
 -12 -18 14 2.4 5.33
 -18 -14 14 -5.64 4.9
 -14 -18 14 -1.54 4.59
 -18 -16 14 6.51 5.22
 -16 -18 14 -3.5 5.14
 -18 -18 14 -4.8 5.17
 19 -1 -14 0.43 3.77
 19 1 -14 -3.13 3.84
 -19 -3 14 0.13 4.14
 19 -3 -14 -1.78 4.05
 19 3 -14 1.7 3.7
 -3 -19 14 8.46 5.61
 19 -5 -14 -1 4.02
 -19 -5 14 -6.87 4.23
 -5 -19 14 3.49 5.28
 19 5 -14 6.97 4.04
 -19 -7 14 -1.55 4.53
 19 -7 -14 5.72 4.03
 -7 -19 14 -1.13 5.11
 19 7 -14 0.36 4.26
 -19 -9 14 -3.02 4.78
 19 -9 -14 -0.83 4.09
 -9 -19 14 7.12 5.28
 -19 -11 14 -3.31 4.76
 -19 -13 14 -4.07 4.97
 -13 -19 14 -2.58 4.48
 -19 -15 14 -4.25 5.05
 -15 -19 14 -5.3 5.32
 -19 -17 14 -8.63 4.86
 -17 -19 14 -0.94 4.72
 -19 -19 14 2.88 4.74
 20 0 -14 6.4 3.74
 20 2 -14 -1.13 3.75
 -20 -4 14 3.13 4.23
 -4 -20 14 -5.67 5.51
 20 4 -14 8.01 4
 20 -6 -14 6.84 4.03
 20 6 -14 8.49 4.16
 -6 -20 14 11.08 5.72
 20 -8 -14 4.22 4.05
 -20 -8 14 -1.69 4.89
 -8 -20 14 -5.35 5.43
 -20 -8 -14 6.36 3.52
 20 -10 -14 -1.89 4.17
 -20 -10 14 -0.62 4.78
 -10 -20 14 1.9 5.19
 -20 -12 14 1.3 5.16
 -12 -20 14 -3 4.74
 -20 -14 14 -1.77 4.93
 -14 -20 14 -5.9 5.27
 -20 -16 14 5.05 5.33
 -16 -20 14 0.29 4.6
 -20 -18 14 -4.95 4.9
 -18 -20 14 -2.66 4.94
 -20 -20 14 4.05 5.3
 21 -1 -14 1.65 3.86
 21 1 -14 2.62 3.9
 21 -3 -14 0.93 3.99
 21 3 -14 -3.23 3.9
 -3 -21 14 5.8 5.88
 21 -5 -14 4.52 4.14
 -21 -5 14 -1.75 4.48
 -5 -21 14 9.26 5.6
 21 5 -14 6.58 3.96
 -21 -7 14 10.26 4.69
 21 -7 -14 7.76 4.13
 -7 -21 14 2.26 5.22
 21 -9 -14 15.23 4.42
 -9 -21 14 10.16 5.42
 -21 -11 14 5.47 5.02
 21 -11 -14 4.59 4.24
 -11 -21 14 7.09 5.61
 -21 -13 14 -2.48 5.37
 -13 -21 14 3.81 5.17
 -21 -15 14 -7.24 5.02
 -15 -21 14 -2.66 4.77
 -21 -17 14 5.18 4.94
 -17 -21 14 4.68 5.02
 -21 -19 14 4.01 5.05
 -19 -21 14 7.63 5.09
 -21 -21 14 3.56 4.6
 22 0 -14 3.47 3.86
 22 -2 -14 -0.8 3.91
 22 2 -14 2.18 3.73
 -22 -4 14 -0.42 4.38
 22 -4 -14 1.28 4.15
 22 4 -14 1.81 3.87
 -4 -22 14 6.98 5.25
 -22 -6 14 -0.51 4.52
 22 -6 -14 -1.94 4.22
 -6 -22 14 3.56 5.08
 22 6 -14 2.81 4.03
 -22 -8 14 3.02 4.82
 22 -8 -14 4.49 4.26
 -8 -22 14 1.44 5.06
 -22 -10 14 0.16 4.98
 22 -10 -14 0.87 4.42
 -10 -22 14 1.73 4.82
 -22 -10 -14 8.78 3.99
 -22 -12 14 3.65 5.1
 22 -12 -14 -2.56 4.31
 -22 -12 -14 6.06 4.08
 -12 -22 14 -0.48 4.74
 -22 -14 14 7.13 5.32
 -14 -22 14 2.6 5.31
 -22 -16 14 11.56 5.45
 -22 -18 14 2.01 4.85
 -18 -22 14 -0.69 5.1
 -22 -20 14 1.9 4.88
 -20 -22 14 -0.09 4.52
 -22 -22 14 1.45 4.73
 23 -1 -14 6.19 3.91
 23 1 -14 5.78 3.74
 23 -3 -14 -3.32 3.9
 23 3 -14 7.98 4
 -3 -23 14 -10.27 5.41
 -23 -5 14 -2.76 4.42
 23 -5 -14 2.37 4.24
 -5 -23 14 0.19 5.06
 23 5 -14 3.34 3.94
 -23 -7 14 -6.46 4.59
 23 -7 -14 -1.25 4.16
 -7 -23 14 4.97 5.66
 -23 -9 14 8.23 4.84
 23 -9 -14 -2.57 4.2
 -9 -23 14 6.62 5.48
 -23 -9 -14 0.77 3.68
 23 -11 -14 12.11 4.57
 -23 -11 14 3.08 5.1
 -23 -11 -14 -0.29 3.92
 -11 -23 14 5.53 5.35
 -23 -13 14 2.66 5.27
 23 -13 -14 -7.19 4.28
 -13 -23 14 -6.41 4.86
 -23 -15 14 -3.02 5.53
 -15 -23 14 -1.03 4.53
 -23 -15 -14 2.31 4.31
 -23 -17 14 -2.84 5.06
 -17 -23 14 3.41 5.15
 -23 -19 14 1.15 4.99
 -19 -23 14 1.63 4.47
 -21 -23 14 3.99 4.72
 24 0 -14 14.73 3.98
 24 2 -14 25.98 4.15
 24 -4 -14 7.7 4.01
 -4 -24 14 0.78 4.97
 24 4 -14 5.24 3.88
 -24 -6 14 -0.64 4.51
 24 -6 -14 1.49 4.24
 -6 -24 14 9.78 5.8
 -24 -8 14 0.61 4.79
 24 -8 -14 1.02 4.31
 -8 -24 14 10.52 5.7
 24 -10 -14 12.16 4.36
 -24 -10 14 2.56 4.97
 -10 -24 14 4.79 5.35
 -24 -10 -14 -4.72 3.79
 24 -12 -14 2.1 4.6
 -12 -24 14 15.96 5.7
 -24 -12 -14 9.21 4.16
 24 -14 -14 -7.29 4.46
 -24 -14 14 -0.52 5.44
 -24 -14 -14 3.23 4.22
 -14 -24 14 8.03 5.07
 -24 -16 14 5.05 5.31
 -24 -16 -14 4.99 4.42
 -16 -24 14 -1.14 4.4
 -24 -18 14 1.1 4.86
 -24 -18 -14 -0.82 4.31
 -18 -24 14 8.93 5.06
 -24 -20 14 4.86 4.73
 -20 -24 14 8.45 4.46
 25 -1 -14 7.4 3.94
 25 1 -14 1.85 3.89
 25 -3 -14 1.5 4.04
 -3 -25 14 -6.07 5.07
 25 3 -14 3.13 3.82
 25 -5 -14 -0.89 4.16
 -5 -25 14 3.69 5.39
 25 -7 -14 -2.08 4.39
 -25 -7 14 2.76 4.63
 -7 -25 14 5.96 5.68
 -25 -9 14 5.82 4.99
 25 -9 -14 14.02 4.43
 -9 -25 14 9.08 4.97
 25 -11 -14 8.63 4.45
 -25 -11 14 3.64 5.12
 -11 -25 14 8.81 4.75
 -25 -13 14 2.08 5.26
 25 -13 -14 -3.63 4.62
 -13 -25 14 7.51 4.85
 -25 -13 -14 -1.94 4.18
 -25 -15 14 11.51 5.3
 25 -15 -14 11.19 4.7
 -15 -25 14 4.6 5.21
 -25 -15 -14 2.69 4.31
 -25 -17 14 0.4 5.16
 -17 -25 14 -0.89 4.61
 -25 -17 -14 7.29 4.35
 -25 -19 14 11.24 5.03
 -19 -25 14 6.06 4.54
 -25 -19 -14 8.92 4.34
 26 0 -14 4.04 3.79
 26 -2 -14 -2.24 3.94
 26 2 -14 2.75 3.84
 26 -4 -14 1.76 4.07
 -4 -26 14 -2.61 4.72
 26 -6 -14 9.15 4.18
 -6 -26 14 2.21 5.64
 -26 -8 14 -2.19 4.6
 -8 -26 14 2.36 5.06
 -26 -10 14 -4.98 5.07
 26 -10 -14 0.25 4.35
 -10 -26 14 5.24 4.61
 -26 -10 -14 5.24 3.46
 26 -12 -14 5.59 4.36
 -26 -12 14 -3.16 5.08
 -26 -12 -14 9.86 3.99
 -12 -26 14 7.03 4.47
 -26 -14 14 4.36 5.23
 26 -14 -14 9.82 4.65
 -26 -14 -14 10.99 4.27
 -14 -26 14 5.04 4.39
 26 -16 -14 -2.42 4.56
 -26 -16 14 0.51 5.19
 -26 -16 -14 3.79 4.32
 -16 -26 14 0.68 4.89
 27 -1 -14 -2.79 3.66
 27 1 -14 2.27 3.79
 27 -3 -14 1.05 3.98
 27 3 -14 -3.72 3.77
 -3 -27 14 -2.41 5.35
 27 -5 -14 6.48 4.01
 -5 -27 14 3.07 5.07
 -27 -7 14 -4.41 4.38
 27 -7 -14 0.37 4.2
 -7 -27 14 1.3 5.33
 -27 -9 14 6.26 4.79
 27 -9 -14 5.93 4.42
 -9 -27 14 5.35 4.45
 -27 -11 14 9.19 5.03
 27 -11 -14 -0.57 4.35
 -11 -27 14 -0.88 4.32
 27 -13 -14 7.34 4.27
 -27 -13 14 7.2 5.07
 -13 -27 14 9.33 4.32
 -27 -13 -14 2.94 4.15
 -27 -15 14 -6.74 5.1
 27 -15 -14 -0.02 6.18
 -27 -15 -14 10.17 4.86
 -15 -27 14 4.03 4.17
 28 0 -14 23 3.98
 28 -2 -14 13.99 3.82
 28 2 -14 21.4 3.83
 28 -4 -14 5.08 3.94
 -4 -28 14 4.4 4.69
 -6 -28 14 1.88 5.11
 28 -8 -14 -0.8 4.23
 -28 -8 14 -2.74 4.42
 -8 -28 14 -7.45 4.77
 28 -10 -14 7.02 4.5
 -28 -10 14 1.68 4.76
 -10 -28 14 0.73 4.28
 -28 -12 14 10.92 5.07
 -12 -28 14 1.74 4.41
 -28 -14 14 6.22 5.08
 -14 -28 14 3.07 4.29
 29 -1 -14 1.35 3.72
 29 1 -14 8.26 3.62
 29 -3 -14 1.88 3.59
 -3 -29 14 5.67 5.04
 29 -5 -14 5.73 5.37
 -5 -29 14 6.89 4.42
 -7 -29 14 18.83 5.18
 -29 -9 14 2.87 4.53
 -9 -29 14 9.99 4.37
 -29 -11 14 11.84 4.78
 -2 -30 14 -5.24 4.9
 -4 -30 14 7.5 5.06
 -6 -30 14 0.08 4.17
 -8 -30 14 9.57 5.04
 -3 -31 14 -8.95 4.35
 -5 -31 14 -5.19 4.85
 1 0 -15 52.77 4.35
 0 -1 15 46.77 4.35
 0 1 -15 46.51 4.13
 2 -1 -15 28.9 3.88
 1 -2 15 30.54 4.04
 -2 -1 15 23.44 4.28
 -2 1 -15 25.84 3.47
 1 2 -15 20.3 3.89
 -1 -2 15 23.07 4.15
 2 1 -15 31.26 4.33
 -1 2 -15 19.92 3.34
 -3 0 -15 20.62 3.2
 0 3 -15 22.69 3.53
 2 3 -15 19.87 4.26
 -3 -2 15 20.15 4.36
 2 -3 15 24.19 3.94
 -2 -3 15 19.2 4.25
 3 2 -15 18.5 4.51
 3 -2 15 24.54 3.62
 -4 1 -15 0.99 3.29
 -4 -1 15 4.77 4.27
 1 -4 15 2.35 4.03
 4 -1 -15 -1.5 3.95
 1 4 -15 -4.47 3.76
 -1 -4 15 2.37 3.97
 4 1 -15 0.24 3.9
 3 4 -15 3.81 4.51
 3 -4 15 6.23 3.66
 -3 -4 15 10.27 4.44
 4 3 -15 -1.14 3.86
 -5 0 -15 182.01 8.32
 5 0 -15 180.74 9.23
 0 -5 15 206.3 9.27
 -5 2 -15 174.85 8.01
 5 -2 -15 163.79 8.92
 -5 -2 15 182.37 9.08
 2 5 -15 171.63 8.93
 -2 -5 15 189.75 9.16
 5 2 -15 175.34 9.11
 4 -5 15 51.95 4.25
 -5 -4 15 68.21 5.47
 5 -4 15 59.04 4.07
 -4 -5 15 54.95 5.2
 5 4 -15 57.68 4.94
 -6 -1 15 -0.59 4.12
 6 -1 -15 4.11 4.35
 -6 1 -15 2.75 2.79
 1 -6 15 -2.84 4.48
 1 6 -15 -0.14 4.51
 -1 -6 15 8.15 4.27
 6 1 -15 -7.55 4.18
 -6 -3 15 -1.52 4.36
 3 -6 15 -1.94 3.79
 3 6 -15 7.84 4.37
 -6 3 -15 3.43 2.89
 6 -3 15 0.39 3.07
 6 3 -15 -3.61 3.88
 -3 -6 15 -3.65 4.59
 5 -6 15 7.43 3.54
 -6 -5 15 4.31 4.56
 6 -5 15 9.91 3.32
 -5 -6 15 4.7 4.35
 6 5 -15 3.71 4.08
 0 7 -15 6.9 4.4
 0 -7 15 8.22 4.62
 7 0 -15 3.56 4.46
 -7 0 -15 4.3 2.53
 -7 -2 15 -4.98 4.27
 -7 2 -15 -1.37 2.49
 2 7 -15 0.75 4.95
 2 -7 15 0.78 4.04
 7 -2 -15 -2.74 4.11
 -2 -7 15 2.53 4.17
 7 2 -15 -1.06 3.82
 -7 4 -15 -3.07 2.96
 4 7 -15 -0.43 4.46
 -7 -4 15 -0.16 4.15
 4 -7 15 -0.98 3.89
 7 4 -15 -0.02 3.99
 7 -4 15 1.44 2.94
 -4 -7 15 10.54 5.06
 6 7 -15 8.64 4.7
 -7 -6 15 13.56 4.44
 6 -7 15 18.31 3.57
 7 -6 15 15.6 3.21
 7 6 -15 4.61 4.66
 -6 -7 15 16.47 4.59
 -8 -1 15 4.44 4.16
 1 -8 15 8.06 4.43
 -8 1 -15 3.63 2.49
 8 -1 -15 4.04 4.17
 -1 -8 15 6.3 4.43
 8 1 -15 5.79 3.8
 3 8 -15 -6.45 4.6
 3 -8 15 -0.79 4.25
 -8 -3 15 0.79 3.87
 8 -3 -15 1.3 3.95
 8 3 -15 -7.27 3.8
 -3 -8 15 0.52 4.53
 5 -8 15 0.3 3.97
 -8 -5 15 6.3 4.84
 5 8 -15 4.45 4.28
 -5 -8 15 7.27 4.55
 8 5 -15 -4.23 3.99
 8 -5 15 5.25 2.88
 7 -8 15 8.96 3.66
 -8 -7 15 12.82 4.69
 8 7 -15 9.87 4.64
 -7 -8 15 23.97 4.96
 8 -7 15 16.51 3.29
 9 0 -15 92.13 7.05
 0 -9 15 87.87 5.71
 -9 -2 15 73.45 5.2
 9 -2 -15 72.67 5.41
 -2 -9 15 70.02 5.6
 4 -9 15 13.48 4.1
 -9 -4 15 10.89 4.48
 -4 -9 15 14.67 5.01
 9 4 -15 6.56 3.95
 -9 -6 15 3.37 4.19
 9 -6 15 1.33 2.77
 -6 -9 15 -7.74 4.74
 9 6 -15 2.4 4.32
 8 9 -15 16.32 5
 -9 -8 15 11.99 4.72
 8 -9 15 7.75 3.61
 9 -8 15 6.53 3.26
 -8 -9 15 7.54 4.42
 9 8 -15 11.87 4.49
 1 -10 15 1.96 4.86
 -10 -1 15 1.24 4.18
 10 -1 -15 1.88 3.96
 10 1 -15 -3.41 4.09
 -1 -10 15 3.34 4.53
 -10 -3 15 -8.39 4.4
 3 -10 15 -0.03 4.55
 10 -3 -15 -4.15 4.14
 10 3 -15 1.01 4.27
 -3 -10 15 -4.39 4.25
 5 -10 15 11.48 4.46
 -10 -5 15 10.98 4.71
 10 5 -15 9.37 3.88
 -5 -10 15 0.05 4.25
 -10 -7 15 2.05 4.39
 7 -10 15 0.38 4.11
 10 -7 15 -0.86 2.85
 -7 -10 15 1.43 4.36
 10 7 -15 3.51 4.32
 -10 -9 15 11.64 4.37
 9 -10 15 9.27 3.78
 10 -9 15 10.17 3.3
 -9 -10 15 11.54 4.69
 10 9 -15 16.14 4.84
 11 0 -15 13.22 3.93
 0 -11 15 9.91 4.82
 2 -11 15 13.45 4.86
 -11 -2 15 4.47 4.16
 11 -2 -15 8.25 4.1
 -2 -11 15 10.84 4.95
 -11 -4 15 8.48 4.21
 11 -4 -15 9.9 4
 4 -11 15 13.69 4.79
 11 4 -15 11.49 4.38
 -4 -11 15 9.05 4.84
 6 -11 15 3.99 4.34
 -11 -6 15 -4.12 4.15
 -6 -11 15 7.77 4.41
 11 6 -15 15.88 4.35
 8 -11 15 2.51 3.94
 -11 -8 15 5.78 4.14
 -8 -11 15 -1.26 4.6
 11 8 -15 7.75 5
 11 -8 15 2.81 2.89
 10 -11 15 1.09 3.69
 -11 -10 15 -3.67 4.17
 -10 -11 15 2.97 4.57
 11 -10 15 2.19 3.38
 1 -12 15 3.64 5.15
 12 -1 -15 -2.89 3.96
 -12 -1 15 0.4 3.98
 12 1 -15 5.31 3.94
 -1 -12 15 11.01 4.73
 3 -12 15 24.92 4.83
 12 -3 -15 14.06 4.09
 -12 -3 15 19.98 4.14
 12 3 -15 20.96 4.03
 -3 -12 15 13.81 4.79
 5 -12 15 2.08 4.58
 -12 -5 15 8.68 4.51
 12 5 -15 13.15 4.03
 -5 -12 15 8.61 4.4
 7 -12 15 3.79 4.35
 -12 -7 15 10.37 4.31
 -7 -12 15 1.66 4.43
 -12 -9 15 7.81 4.41
 9 -12 15 5.47 4.11
 -9 -12 15 1.04 4.95
 12 -9 15 1.1 2.93
 11 -12 15 -0.7 3.71
 -12 -11 15 5.57 4.49
 12 -11 15 7.11 3.48
 -11 -12 15 5.91 4.3
 0 -13 15 47.86 5.53
 13 0 -15 40.43 4.37
 -13 -2 15 44.74 4.42
 13 -2 -15 40.68 4.42
 2 -13 15 35.69 5.27
 -2 -13 15 44.42 5.64
 13 2 -15 41.87 4.25
 -13 -4 15 14.14 4.39
 13 -4 -15 21.46 4.17
 4 -13 15 10.42 4.85
 -4 -13 15 18.34 5.26
 13 4 -15 14.05 3.98
 -13 -6 15 11.98 4.5
 6 -13 15 14.1 4.59
 -6 -13 15 17.11 5.49
 13 6 -15 21.46 4.37
 8 -13 15 -2.25 4.22
 -13 -8 15 3.31 4.66
 -8 -13 15 3.03 4.58
 13 8 -15 10.24 4.45
 -13 -10 15 5.81 4.63
 10 -13 15 12.66 4.16
 13 -10 15 11.62 3.05
 -13 -12 15 -0.26 4.69
 12 -13 15 -0.94 3.84
 -12 -13 15 0.54 4.76
 1 -14 15 5.57 5.37
 14 -1 -15 9.68 3.86
 14 -3 -15 0.08 3.91
 3 -14 15 -5.62 4.86
 -3 -14 15 -0.17 4.94
 14 3 -15 -4.66 3.78
 5 -14 15 2.27 4.67
 14 -5 -15 0.4 3.95
 -14 -5 15 -4.22 4.11
 14 5 -15 -0.3 3.91
 -5 -14 15 0.3 4.78
 -14 -7 15 2.87 4.45
 14 7 -15 1.94 4.39
 -7 -14 15 -1.83 4.68
 -14 -9 15 -8.65 4.42
 -9 -14 15 12.91 5.1
 -14 -11 15 -1.2 4.43
 -11 -14 15 2.69 4.51
 -14 -13 15 -0.67 4.78
 14 -13 15 -2.8 3.64
 -13 -14 15 9.85 5.01
 15 0 -15 4.31 3.79
 0 -15 15 11.72 5.16
 2 -15 15 12.13 5.27
 -15 -2 15 0.71 4
 15 -2 -15 3.07 3.8
 15 2 -15 9.39 3.85
 -2 -15 15 8.36 5.15
 15 -4 -15 -3.92 3.89
 -15 -4 15 3.91 4.33
 -4 -15 15 3.18 5.14
 15 4 -15 4.29 3.82
 15 -6 -15 0.94 3.85
 -15 -6 15 -4.73 4.24
 -6 -15 15 -1.67 5.19
 15 6 -15 0.85 4.01
 -15 -8 15 6.48 4.54
 -8 -15 15 -3.68 4.59
 15 8 -15 1.85 4.49
 -15 -10 15 7.27 4.74
 -10 -15 15 -3.6 5.04
 -15 -12 15 5.31 4.89
 -12 -15 15 6.43 4.72
 -15 -14 15 -0.53 4.78
 15 -14 15 -4.9 3.64
 -14 -15 15 -6.56 5.06
 16 -1 -15 4.68 3.9
 1 -16 15 8.7 5.66
 16 1 -15 -1.41 3.85
 -1 -16 15 -5.86 5.14
 -16 -3 15 1.27 4.15
 16 -3 -15 0.8 3.83
 3 -16 15 0.53 5.23
 16 3 -15 -1.76 3.96
 -3 -16 15 -2.76 5.11
 16 -5 -15 5.9 3.89
 -16 -5 15 -1.22 4.2
 -5 -16 15 -5.45 5.46
 16 5 -15 6.36 3.95
 -16 -7 15 -0.41 4.34
 16 -7 -15 3.56 3.85
 -7 -16 15 -1.1 5.11
 16 7 -15 -7.4 4.37
 -16 -9 15 6.04 4.52
 -9 -16 15 3.77 4.69
 -16 -11 15 8.93 4.59
 -11 -16 15 -6.2 5.32
 -16 -13 15 1.25 4.49
 -13 -16 15 7.29 4.51
 16 -13 15 2.4 3.36
 -16 -15 15 8.49 4.61
 -15 -16 15 0.87 5.08
 17 0 -15 1.5 3.64
 0 -17 15 4.73 5.71
 -17 -2 15 -3.51 4.09
 17 -2 -15 4.31 4.04
 -2 -17 15 2.05 5.28
 17 2 -15 4.88 3.81
 17 -4 -15 -4.03 4.05
 -17 -4 15 1.5 4.2
 -4 -17 15 -4.87 5.07
 17 4 -15 -4.81 3.89
 -17 -6 15 3.27 4.57
 17 -6 -15 -1.12 4.06
 17 6 -15 -5.33 4.21
 -6 -17 15 -5.34 5.03
 -17 -8 15 3.42 4.39
 17 -8 -15 -6.81 3.94
 -8 -17 15 -3.54 4.96
 17 8 -15 -1.97 4.42
 -17 -10 15 0.56 4.64
 -10 -17 15 6.04 5.11
 -17 -12 15 3.53 4.57
 -12 -17 15 -5.08 5.01
 -17 -14 15 -6.4 4.57
 -14 -17 15 1.3 4.75
 -17 -16 15 7.09 4.78
 -16 -17 15 8.8 5.11
 1 -18 15 3.13 5.49
 18 -1 -15 1.46 3.86
 -1 -18 15 0.26 5.51
 18 1 -15 -5.11 3.92
 -18 -3 15 1.28 4.01
 18 -3 -15 -1.76 3.98
 -3 -18 15 2.72 5.61
 18 3 -15 3.47 3.74
 18 -5 -15 1.79 3.95
 18 5 -15 3.68 3.95
 -5 -18 15 -0.76 5.04
 -18 -7 15 -0.14 4.41
 18 -7 -15 3.46 4.15
 18 7 -15 0.51 4.14
 -7 -18 15 2 5.24
 -18 -9 15 6.46 4.68
 -9 -18 15 -6.75 5.21
 -18 -11 15 -4.04 5.02
 -11 -18 15 -5.42 5.46
 -18 -13 15 -3.38 4.74
 -13 -18 15 4.98 4.5
 -18 -15 15 4.88 4.81
 -15 -18 15 -6.26 5.28
 18 -15 15 0.5 3.31
 -18 -17 15 -2.28 5.28
 -17 -18 15 -4.27 4.71
 0 -19 15 33.79 6.18
 19 0 -15 31.15 4.17
 19 -2 -15 21.89 4.29
 -2 -19 15 21.51 5.3
 19 2 -15 19.49 3.99
 19 -4 -15 7.63 4.17
 -19 -4 15 6.81 4.53
 -4 -19 15 5.21 5.79
 19 4 -15 4.96 4
 -19 -6 15 -3.32 4.51
 19 -6 -15 5 4.01
 -6 -19 15 1.32 5.7
 19 6 -15 8.95 4.15
 -19 -8 15 -1.33 4.63
 19 -8 -15 0.47 4.2
 -8 -19 15 7.51 5.74
 -19 -10 15 -6.12 4.74
 -10 -19 15 12.11 5.22
 -19 -12 15 -2.58 4.76
 -12 -19 15 -5.23 4.59
 -19 -14 15 2.75 4.87
 -14 -19 15 12.35 5.14
 -19 -16 15 9.11 4.82
 -16 -19 15 -1.79 4.74
 -19 -18 15 0.22 4.92
 -18 -19 15 -8.71 5.21
 20 -1 -15 -0.95 3.84
 20 1 -15 7.34 3.85
 -1 -20 15 1.65 5.69
 -20 -3 15 3.51 4.22
 20 3 -15 3.9 3.81
 -3 -20 15 7.01 5.88
 20 -5 -15 2.66 4.05
 -20 -5 15 6.12 4.28
 -5 -20 15 -3.58 5.19
 20 5 -15 5.53 4.01
 -20 -7 15 -5.03 4.55
 20 -7 -15 -2.22 4.05
 -7 -20 15 6.56 5.03
 20 7 -15 -0.34 4.27
 20 -9 -15 6.2 4.28
 -20 -9 15 3.08 4.84
 -9 -20 15 1.25 5.02
 -20 -11 15 -7.47 5.06
 -11 -20 15 -1.9 4.94
 -20 -13 15 -7.35 5.08
 -13 -20 15 2.29 5.41
 -20 -15 15 5.22 5.01
 -15 -20 15 5.38 4.85
 -20 -17 15 -0.4 5.01
 -17 -20 15 2.55 5.26
 -20 -19 15 -4.85 4.9
 -19 -20 15 4.12 4.63
 21 0 -15 6.03 3.92
 21 -2 -15 5.94 3.85
 -2 -21 15 0.41 5.57
 21 2 -15 6.82 3.89
 21 -4 -15 5.37 4.16
 -21 -4 15 3.8 4.22
 -4 -21 15 2.87 5.61
 21 4 -15 4.2 4.13
 -21 -6 15 -8.6 4.39
 21 -6 -15 -4.2 4.09
 -6 -21 15 -2.4 6.03
 21 6 -15 0.31 4.11
 21 -8 -15 -9.12 4.11
 -21 -8 15 -2.14 4.69
 -8 -21 15 9.78 5.9
 -21 -8 -15 -0.17 3.42
 21 -10 -15 4.62 4.39
 -21 -10 15 1.48 4.84
 -10 -21 15 0.39 5.67
 -21 -12 15 8.7 5.01
 -12 -21 15 -7.79 5.12
 -21 -14 15 3.67 5.14
 -14 -21 15 1.03 4.65
 -21 -16 15 2.71 4.92
 -16 -21 15 -3.4 5.35
 -21 -18 15 -3.18 5.05
 -18 -21 15 7.24 4.62
 -21 -20 15 0.36 4.89
 -20 -21 15 -7.72 5.06
 22 -1 -15 -1.65 3.9
 -1 -22 15 -4.22 5.66
 22 1 -15 2.05 3.98
 22 -3 -15 -1.17 3.96
 -3 -22 15 -1.85 5.66
 22 3 -15 -0.86 3.96
 22 -5 -15 -0.33 4.22
 -22 -5 15 -4.46 4.49
 22 5 -15 3.46 4.06
 -5 -22 15 -5.97 5.92
 22 -7 -15 -3.97 4.19
 -22 -7 15 -2.82 4.8
 -7 -22 15 11.17 5.03
 -22 -9 15 -1 4.87
 22 -9 -15 -6.53 4.27
 -9 -22 15 4.06 4.86
 -22 -9 -15 2.02 3.67
 -22 -11 15 -2.9 5.13
 22 -11 -15 -2.05 4.49
 -11 -22 15 0.09 4.89
 -22 -11 -15 6.86 3.93
 -22 -13 15 -1.52 5.24
 -13 -22 15 4.26 5.26
 -22 -15 15 -11.58 5.09
 -15 -22 15 -2.56 5.02
 -22 -17 15 -4.19 4.87
 -17 -22 15 -2.58 4.55
 -22 -19 15 3.96 4.69
 -19 -22 15 2.04 5.02
 -22 -21 15 -0.17 4.94
 -21 -22 15 0.8 4.76
 23 0 -15 4.41 3.97
 23 -2 -15 8.25 3.99
 -2 -23 15 1.05 5.46
 23 2 -15 3.4 3.86
 23 -4 -15 -0.24 4.07
 -4 -23 15 0.37 5.69
 23 -6 -15 -8.39 4.25
 -23 -6 15 -2.53 4.53
 -6 -23 15 -3.78 5.1
 -23 -8 15 0.11 4.89
 23 -8 -15 9.59 4.32
 -8 -23 15 1.51 5.31
 -23 -10 15 3.05 4.93
 23 -10 -15 1.87 4.31
 -23 -10 -15 5.78 3.81
 -10 -23 15 -2.8 5.29
 23 -12 -15 3.33 4.61
 -23 -12 15 4.18 4.96
 -12 -23 15 5.3 4.99
 -23 -14 15 7.37 5.23
 -14 -23 15 7.88 4.59
 -23 -14 -15 4.96 4.23
 -23 -16 15 -0.6 5.18
 -16 -23 15 -3.61 5
 -23 -18 15 -0.38 5.31
 -18 -23 15 8.77 4.85
 -23 -20 15 4.93 5.06
 -20 -23 15 2.27 4.92
 24 -1 -15 1.92 3.98
 24 1 -15 -1.78 3.88
 24 -3 -15 1.18 4.03
 24 3 -15 6.28 3.97
 -3 -24 15 4.94 5.94
 -24 -5 15 -2.79 4.54
 24 -5 -15 -4.06 4.18
 -5 -24 15 4.62 5.12
 24 5 -15 5.07 4.05
 -24 -7 15 2.88 4.68
 24 -7 -15 2.67 4.31
 -7 -24 15 -4.98 5.62
 24 -9 -15 0.92 4.37
 -24 -9 15 -1.21 4.94
 -9 -24 15 -3.63 5.64
 24 -11 -15 -2.33 4.28
 -24 -11 15 4.05 5.09
 -11 -24 15 -10.37 5.42
 24 -13 -15 0.19 4.66
 -24 -13 15 -7.69 5.2
 -24 -13 -15 8.72 4.18
 -13 -24 15 -5.24 5.34
 -24 -15 15 9.22 5.34
 -15 -24 15 5.57 4.88
 -24 -15 -15 1.12 4.33
 -24 -17 15 2.05 5.03
 -24 -17 -15 -2.67 4.31
 -17 -24 15 -9.3 4.37
 -24 -19 15 2.51 4.83
 -24 -19 -15 2.77 4.38
 -19 -24 15 1.69 5.04
 25 0 -15 4.05 3.94
 25 -2 -15 3.06 4.02
 25 2 -15 6.47 3.95
 -2 -25 15 -8.47 5.44
 25 -4 -15 6.28 4.1
 25 4 -15 -1.85 3.94
 -4 -25 15 4.35 4.99
 25 -6 -15 0.52 4.39
 -25 -6 15 -1.31 4.47
 -6 -25 15 2.23 5.43
 25 -8 -15 10.4 4.58
 -8 -25 15 14.56 5.71
 -25 -10 15 4.26 5.16
 25 -10 -15 -4.72 4.33
 -10 -25 15 -1.78 5.08
 25 -12 -15 -7.39 4.37
 -25 -12 15 -1.45 5.37
 -25 -12 -15 -6.15 3.98
 -12 -25 15 1.09 4.92
 -25 -14 15 -2.06 5.26
 25 -14 -15 6.38 4.7
 -14 -25 15 11.56 5.16
 -25 -14 -15 1.18 4.22
 -25 -16 15 8.93 5.12
 -25 -16 -15 14.5 4.39
 -16 -25 15 1.54 4.99
 -25 -18 15 5.88 5.32
 -18 -25 15 2.68 4.39
 -25 -18 -15 1.89 4.32
 26 -1 -15 0.6 3.96
 -1 -26 15 5.68 5.21
 26 1 -15 -0.89 3.91
 26 -3 -15 3.54 4.09
 26 3 -15 1.44 3.83
 -3 -26 15 -1.24 5.72
 26 -5 -15 -3.07 4.09
 -5 -26 15 2.85 5.02
 -26 -7 15 1.06 4.55
 26 -7 -15 6.11 4.58
 -7 -26 15 16.16 5.8
 26 -9 -15 6.1 4.42
 -26 -9 15 -1.42 4.71
 -9 -26 15 1.19 4.81
 -26 -11 15 -4.3 5.08
 26 -11 -15 5.46 4.43
 -11 -26 15 0.23 4.54
 26 -13 -15 12.29 4.46
 -26 -13 15 7.61 5.03
 -13 -26 15 3.8 4.42
 26 -15 -15 2.24 4.66
 -26 -15 15 -5.2 5.11
 -15 -26 15 -1.93 4.5
 -26 -15 -15 9.59 4.34
 -26 -17 15 8.12 5.22
 -26 -17 -15 -2.5 4.32
 -17 -26 15 -0.72 4.97
 27 0 -15 2.89 3.92
 27 -2 -15 7.37 4.03
 -2 -27 15 2.48 5.03
 27 2 -15 9.13 3.85
 27 -4 -15 7.2 4.05
 -4 -27 15 -1.88 4.97
 27 -6 -15 3.05 4.18
 -6 -27 15 4.14 5.25
 -27 -8 15 -3.48 4.53
 27 -8 -15 8.33 4.48
 -8 -27 15 0.35 5.02
 -27 -10 15 3.3 4.89
 -10 -27 15 5.71 4.48
 -27 -12 15 -9.14 4.97
 27 -12 -15 1.85 4.37
 -12 -27 15 3.27 4.32
 27 -14 -15 6.1 4.3
 -27 -14 15 4.36 4.97
 -27 -14 -15 10.65 5.69
 -14 -27 15 -0.31 4.27
 28 -1 -15 4.03 3.82
 -1 -28 15 1.04 5.54
 28 1 -15 6.8 3.82
 28 -3 -15 0.43 3.93
 28 3 -15 1.41 3.78
 -3 -28 15 -0.02 5.33
 28 -5 -15 -2.76 4.09
 -5 -28 15 0.06 4.61
 -7 -28 15 9.33 5.4
 28 -9 -15 4.21 4.41
 -28 -9 15 -2.24 4.64
 -9 -28 15 0.99 4.37
 -28 -11 15 7.36 4.85
 28 -11 -15 5.46 4.85
 -28 -13 15 4.29 5.1
 -13 -28 15 2.58 4.48
 29 0 -15 3.6 3.72
 29 -2 -15 -2.42 3.81
 29 2 -15 -4.38 3.73
 -2 -29 15 -4.45 4.66
 29 -4 -15 9.72 3.99
 -4 -29 15 -3.17 5.31
 29 -6 -15 -1.17 4.94
 -6 -29 15 0.25 4.67
 -8 -29 15 5.74 4.96
 -29 -10 15 -3.14 4.57
 -10 -29 15 -2.5 4.2
 -1 -30 15 -4.03 4.62
 30 1 -15 4.67 4.06
 -3 -30 15 -4.32 4.32
 -5 -30 15 2.4 4.78
 -7 -30 15 4.68 4.78
 0 -31 15 1.41 4.96
 -2 -31 15 -9.89 4.77
 -4 -31 15 1.64 4.43
 1 -1 -16 -3.02 3.92
 -1 -1 16 4.29 3.92
 1 1 -16 -5.79 4.09
 -3 -1 16 51.07 4.71
 1 3 -16 33.56 4.26
 1 -3 16 51.37 4.37
 -1 -3 16 44.48 4.63
 3 1 -16 40.75 4.5
 3 3 -16 0.11 3.7
 -3 -3 16 1.68 4.33
 3 -3 16 -5.11 3.58
 1 5 -16 -1.9 4.22
 -5 -1 16 0.77 4.17
 1 -5 16 0.64 4.11
 5 -1 -16 5.4 4.66
 -5 1 -16 3.06 3.04
 -1 -5 16 -4.89 4.13
 5 1 -16 1.62 4.04
 3 -5 16 3.97 3.88
 3 5 -16 -3.49 3.88
 -5 -3 16 -1.98 4.47
 -5 3 -16 2.82 3.17
 5 -3 16 6.01 3.25
 5 3 -16 1.75 4.01
 -3 -5 16 7.09 4.89
 5 5 -16 1.51 4.16
 -5 -5 16 -8.48 4.48
 6 0 -16 102.99 5.64
 -6 0 -16 84.88 5.52
 0 -6 16 91.84 7.29
 6 -2 -16 217.09 10.35
 -6 2 -16 231.57 9.35
 2 6 -16 214.67 10.35
 -6 -2 16 228.32 10.68
 6 2 -16 220.52 10.3
 -2 -6 16 223.22 10.39
 -6 4 -16 84.68 5.62
 4 -6 16 97.7 6.22
 -4 -6 16 84.37 7.01
 6 4 -16 85.57 7.12
 6 -4 16 88.53 5.53
 6 6 -16 262.55 12.06
 -6 -6 16 290.37 12.33
 1 7 -16 20.57 4.47
 7 -1 -16 28.24 4.54
 1 -7 16 29.27 4.85
 -7 1 -16 26.47 3.02
 -7 -1 16 28.61 4.24
 7 1 -16 30.62 4.45
 -1 -7 16 32.63 4.72
 -7 3 -16 57.07 4.74
 3 7 -16 68.54 5.23
 3 -7 16 65.54 4.75
 -7 -3 16 59.43 5.17
 7 3 -16 63.93 5.14
 -7 -5 16 20.61 4.5
 5 7 -16 25.53 4.77
 5 -7 16 31.35 3.9
 7 -5 16 25.92 3.36
 -5 -7 16 35.97 4.41
 7 5 -16 16.84 4.1
 -7 -7 16 -4.5 4.18
 7 7 -16 -3.48 4.3
 7 -7 16 3.98 3.39
 0 8 -16 344.79 14.01
 8 0 -16 341.56 13.99
 0 -8 16 319.71 14.01
 2 -8 16 92.64 5.72
 2 8 -16 103.13 6.35
 8 2 -16 93.87 5.91
 -2 -8 16 96.54 6.1
 -8 4 -16 41.15 3.21
 -8 -4 16 43.3 4.59
 4 -8 16 36.8 4.3
 4 8 -16 33.64 4.51
 8 -4 16 37.26 3.14
 -4 -8 16 38.58 4.84
 8 4 -16 30.66 4.16
 6 -8 16 8.24 3.75
 -8 -6 16 2.03 4.39
 8 6 -16 -0.44 4.4
 8 -6 16 2.12 3.04
 -6 -8 16 0.51 4.34
 8 -8 16 155.33 7.63
 8 8 -16 144.76 8.97
 -8 -8 16 161.62 8.74
 1 -9 16 -0.13 4.42
 -9 -1 16 -5.15 4.08
 9 -1 -16 -2.03 4.04
 -9 1 -16 2.2 2.34
 9 1 -16 -8.43 3.94
 -1 -9 16 -7.37 4.3
 9 -3 -16 4.68 4.01
 -9 -3 16 -2.05 4.15
 3 -9 16 5.38 4.25
 9 3 -16 -3.06 3.79
 -3 -9 16 2.39 5.04
 5 9 -16 1.98 5.07
 -9 -5 16 10.96 4.46
 5 -9 16 12.93 3.97
 9 5 -16 11.58 4.33
 -5 -9 16 6.13 4.45
 7 -9 16 39.35 4.07
 7 9 -16 42.42 5.08
 -9 -7 16 28.49 4.41
 9 -7 16 41.64 3.5
 9 7 -16 37.74 4.86
 -7 -9 16 31.92 4.69
 9 -9 16 6.17 3.39
 -9 -9 16 1.18 4.7
 9 9 -16 2.93 5.25
 0 -10 16 118.58 6.81
 10 -2 -16 192.46 9.34
 2 -10 16 202.42 9.46
 -10 -2 16 193.02 9.39
 -2 -10 16 197.97 9.97
 10 2 -16 180.03 9.22
 -10 -4 16 43.7 4.78
 4 -10 16 45 4.76
 10 -4 -16 40.65 4.54
 -4 -10 16 34.09 4.91
 -10 -6 16 54.69 4.98
 -6 -10 16 48.5 5.14
 10 6 -16 38.32 4.5
 10 -6 16 49.1 3.25
 8 -10 16 27.34 3.93
 -10 -8 16 26.99 4.35
 -8 -10 16 17.63 4.3
 10 8 -16 10.9 4.41
 10 -8 16 19.17 3.16
 -10 -10 16 5.94 4.57
 10 -10 16 7.47 3.43
 -11 -1 16 7.69 4.05
 11 -1 -16 14.1 4.17
 1 -11 16 12.34 5.04
 -1 -11 16 3.88 4.43
 11 1 -16 4.3 3.97
 11 -3 -16 7.62 4.24
 3 -11 16 2.04 4.8
 -3 -11 16 5.46 4.7
 11 3 -16 8.29 4.06
 -11 -5 16 -1.45 4.2
 5 -11 16 4.87 4.3
 11 5 -16 0.66 4.02
 -5 -11 16 1.69 4.65
 7 -11 16 79.78 6.46
 -7 -11 16 59.9 5.29
 11 7 -16 64.44 4.99
 9 -11 16 3.97 3.83
 -11 -9 16 4.95 4.22
 11 -9 16 -1.76 2.96
 -9 -11 16 5.67 4.18
 -11 -11 16 0.36 4.61
 11 -11 16 1.51 3.63
 0 -12 16 38.61 5.4
 12 0 -16 30.17 4.2
 12 -2 -16 -2.36 4.16
 -12 -2 16 -5.66 3.98
 2 -12 16 -0.98 4.63
 12 2 -16 5.71 4
 -2 -12 16 10.54 4.76
 4 -12 16 30.73 4.97
 -12 -4 16 35.09 4.44
 -4 -12 16 30.42 5.18
 12 4 -16 36.71 4.44
 6 -12 16 1.45 4.38
 -12 -6 16 1.48 4.47
 12 6 -16 -0.03 3.93
 -6 -12 16 -2.16 4.68
 8 -12 16 68.99 5.01
 -8 -12 16 48.88 4.85
 12 8 -16 53.15 5.04
 -12 -10 16 26.49 4.76
 10 -12 16 23.42 4.08
 -10 -12 16 22.85 4.54
 12 -10 16 21.75 3.26
 12 -12 16 62.73 4.52
 -12 -12 16 63.87 5.51
 1 -13 16 -4.87 4.71
 13 -1 -16 2.01 4.02
 -1 -13 16 8.16 5.37
 13 1 -16 4.34 4.12
 13 -3 -16 17.71 4.05
 3 -13 16 17.83 4.96
 -13 -3 16 12.75 4.09
 13 3 -16 15.34 4.09
 -3 -13 16 17.57 4.93
 5 -13 16 3.19 4.76
 13 -5 -16 5.4 4.01
 -5 -13 16 7.37 4.34
 13 5 -16 6.27 3.83
 7 -13 16 62.72 5
 13 7 -16 50.17 4.86
 -7 -13 16 54.73 5.33
 -13 -9 16 10.41 4.41
 9 -13 16 8.4 4.24
 -9 -13 16 0.55 4.75
 13 9 -16 -6.25 4.48
 -13 -11 16 -0.19 4.45
 11 -13 16 5.2 3.9
 -11 -13 16 6.96 4.66
 13 -11 16 2.04 3.19
 -13 -13 16 -2.79 4.59
 13 -13 16 5.87 3.63
 14 0 -16 482.48 19.74
 0 -14 16 518.08 20.12
 2 -14 16 525.77 21.96
 -14 -2 16 553.09 21.54
 14 -2 -16 557.15 21.52
 14 2 -16 532.73 21.41
 -2 -14 16 580.19 21.91
 4 -14 16 240.05 11.47
 -14 -4 16 243.68 10.8
 14 -4 -16 233.99 10.84
 14 4 -16 228.56 10.84
 -4 -14 16 256.65 11.65
 6 -14 16 94.71 7.64
 14 -6 -16 121.6 7.12
 14 6 -16 106.88 7.33
 -6 -14 16 96.09 8.1
 8 -14 16 4.93 4.51
 -8 -14 16 4.36 4.84
 14 8 -16 -3.4 4.54
 -14 -10 16 5.86 4.34
 10 -14 16 1.32 4.18
 14 -10 16 8.26 2.77
 -10 -14 16 -5.11 4.47
 -14 -12 16 19.25 4.66
 12 -14 16 16.99 4.13
 -12 -14 16 24.55 5.32
 14 -12 16 17.76 3.5
 14 -14 16 17.25 3.93
 -14 -14 16 25.57 4.61
 15 -1 -16 10.13 4.09
 1 -15 16 1.36 5.45
 -1 -15 16 -1.44 5.06
 15 1 -16 3.55 3.61
 15 -3 -16 -0.36 4.03
 3 -15 16 0.14 4.97
 -15 -3 16 -1.89 4.04
 -3 -15 16 8.54 5.58
 5 -15 16 -5.44 4.76
 15 -5 -16 -4.59 4.18
 -15 -5 16 -8.66 4.02
 -5 -15 16 1.38 5.39
 15 5 -16 1.01 4.07
 7 -15 16 0.96 4.73
 -15 -7 16 4.22 4.34
 15 7 -16 2.68 4.26
 -7 -15 16 9.62 5.52
 -15 -9 16 4.56 4.5
 9 -15 16 -1.43 4.42
 -9 -15 16 13.29 5.16
 11 -15 16 3.07 4.27
 -15 -11 16 6.7 4.97
 -11 -15 16 5.74 4.46
 -15 -13 16 -2.93 4.65
 13 -15 16 2.81 3.99
 -13 -15 16 5.51 4.94
 15 -13 16 3.4 3.45
 15 -15 16 1.58 3.79
 -15 -15 16 6.09 4.48
 16 0 -16 73.74 4.84
 0 -16 16 54.17 5.88
 -16 -2 16 86.7 6.92
 16 -2 -16 93.76 5.5
 2 -16 16 89.26 6.56
 -2 -16 16 92.07 6.7
 16 2 -16 85.48 6.65
 4 -16 16 64.62 5.86
 -16 -4 16 54.11 4.92
 16 -4 -16 52.4 4.73
 16 4 -16 46.47 4.57
 -4 -16 16 54.63 6.16
 -16 -6 16 2.37 4.17
 16 -6 -16 11.27 4.12
 6 -16 16 5.95 4.97
 16 6 -16 8.57 4.33
 -6 -16 16 12.58 5.62
 -16 -8 16 7.29 4.74
 -8 -16 16 17.36 5.43
 16 8 -16 10.12 4.67
 -16 -10 16 18.88 4.82
 -10 -16 16 20.3 5.2
 -16 -12 16 28.29 4.66
 -12 -16 16 32.3 4.68
 14 -16 16 55.39 4.94
 -16 -14 16 69.2 5.7
 -14 -16 16 77.57 5.96
 16 -14 16 62.03 4.46
 16 -16 16 61.96 4.62
 -16 -16 16 50.35 5.35
 1 -17 16 -1.32 5.58
 17 -1 -16 -1.67 3.96
 17 1 -16 5.46 3.89
 -1 -17 16 2.27 5.11
 17 -3 -16 4.71 4
 -17 -3 16 4.23 4.2
 3 -17 16 -3.63 5.63
 17 3 -16 4.42 3.87
 -3 -17 16 6.14 5.78
 5 -17 16 11.44 5.36
 -17 -5 16 3.73 4.45
 17 -5 -16 1.55 3.92
 17 5 -16 5.94 4.04
 -5 -17 16 6.54 5.86
 17 -7 -16 0.66 4.17
 -17 -7 16 9.14 4.71
 17 7 -16 7.15 4.41
 -7 -17 16 3.26 5.71
 -17 -9 16 3.48 4.83
 -9 -17 16 7.04 5.36
 -17 -11 16 -1.07 4.68
 -11 -17 16 4.36 4.89
 -17 -13 16 0.95 4.88
 -13 -17 16 5.69 4.73
 -17 -15 16 -3.26 5.04
 -15 -17 16 1.25 5
 17 -17 16 3.61 3.85
 -17 -17 16 -1.05 4.81
 0 -18 16 465.36 19.01
 18 0 -16 452.39 18.15
 18 -2 -16 390.84 15.68
 2 -18 16 402.29 16.47
 18 2 -16 360.43 15.51
 -2 -18 16 386.74 16.39
 18 -4 -16 230.53 10.68
 4 -18 16 227.75 11.6
 -18 -4 16 240.31 10.97
 18 4 -16 231.29 10.53
 -4 -18 16 242.11 11.85
 -18 -6 16 91.62 5.84
 18 -6 -16 75.3 5.47
 18 6 -16 82.84 6.76
 -6 -18 16 88.12 6.82
 18 -8 -16 9.57 4.16
 -18 -8 16 11.27 4.56
 18 8 -16 14.22 4.43
 -8 -18 16 11.89 5.59
 -18 -10 16 6.86 4.93
 -10 -18 16 -3.43 5.01
 -18 -12 16 0.49 4.89
 -12 -18 16 1.24 4.5
 -18 -14 16 23.06 5.31
 -14 -18 16 16.55 5.32
 -18 -16 16 49.68 5.57
 18 -16 16 44.1 4.08
 -16 -18 16 38.75 5.21
 18 -18 16 28.45 4.07
 -18 -18 16 36.51 5.67
 1 -19 16 -5.18 5.93
 19 -1 -16 -2.53 3.82
 19 1 -16 2.25 3.78
 -1 -19 16 -5.24 5.59
 3 -19 16 -2.58 5.59
 -19 -3 16 7.65 4.21
 19 -3 -16 14.28 4.11
 -3 -19 16 3.14 5.69
 19 -5 -16 4.39 3.97
 -19 -5 16 -4.55 4.28
 -5 -19 16 -5.56 5.08
 19 5 -16 4.22 4.16
 -19 -7 16 -4.4 4.5
 19 -7 -16 -1.6 4.04
 19 7 -16 5.33 4.28
 -7 -19 16 4.84 5.26
 19 -9 -16 9.79 4.27
 -19 -9 16 9.95 4.71
 -9 -19 16 9.17 5.13
 -19 -11 16 -0.76 4.82
 -11 -19 16 7.88 4.65
 -19 -13 16 -8.13 5.06
 -13 -19 16 -5.36 5.06
 -19 -15 16 -4.31 5.04
 -15 -19 16 0.4 4.89
 -19 -17 16 -3.16 4.81
 -17 -19 16 1.91 4.87
 19 -19 16 -6.39 6.3
 -19 -19 16 4.2 4.93
 20 0 -16 42.76 4.5
 0 -20 16 51.26 6.23
 20 -2 -16 43.55 4.5
 2 -20 16 49.08 6.39
 20 2 -16 42.33 4.32
 -2 -20 16 40.73 5.67
 -20 -4 16 32.75 4.72
 20 -4 -16 33.47 4.47
 20 4 -16 33 4.44
 -4 -20 16 41.64 6.09
 -20 -6 16 11.14 4.76
 20 -6 -16 9.98 4.26
 -6 -20 16 14.01 5.78
 20 6 -16 4.73 4.17
 20 -8 -16 1.32 4.08
 -20 -8 16 -0.09 4.58
 -8 -20 16 7.46 5.3
 20 -10 -16 -6.05 4.24
 -20 -10 16 1.49 5.12
 -10 -20 16 1.83 5.42
 -20 -12 16 -8.25 5.29
 -12 -20 16 0.03 5.44
 -20 -14 16 23.77 5.17
 -14 -20 16 18.04 5.09
 -16 -20 16 10.9 4.76
 -20 -18 16 6.89 4.9
 18 -20 16 12.09 4.22
 -18 -20 16 12.14 5.04
 -20 -20 16 9.87 5.09
 21 -1 -16 1.4 3.87
 1 -21 16 -0.16 5.7
 -1 -21 16 -8.25 5.29
 21 1 -16 4.03 3.91
 21 -3 -16 -3.26 4.2
 -3 -21 16 -1.45 5.97
 21 3 -16 -4.82 3.8
 21 -5 -16 2.57 4.18
 -21 -5 16 -4.91 4.39
 -5 -21 16 -5.37 5.07
 21 5 -16 3.78 4.16
 -21 -7 16 -9.07 4.61
 21 -7 -16 -0.81 4.21
 -7 -21 16 0.32 5.34
 21 7 -16 2.49 4.2
 -21 -9 16 -4.6 4.7
 21 -9 -16 7.36 4.21
 -9 -21 16 -9.23 5.43
 21 -11 -16 3.67 4.41
 -21 -11 16 2 4.96
 -11 -21 16 -2.76 5.15
 -21 -13 16 3.57 5.11
 -13 -21 16 1.41 4.58
 -21 -15 16 1.27 5.03
 -15 -21 16 3.95 5.12
 -21 -17 16 -6.65 5.12
 -17 -21 16 10.84 5.05
 19 -21 16 -6.48 4.4
 -21 -19 16 1.38 5.13
 -19 -21 16 -1.78 4.73
 -21 -21 16 7.04 4.74
 22 0 -16 11.97 4.03
 0 -22 16 4.22 5.43
 22 -2 -16 10.13 4.1
 22 2 -16 17.41 4.01
 -2 -22 16 14.03 6.1
 -22 -4 16 4.3 4.57
 22 -4 -16 -1.81 4.32
 22 4 -16 9.16 4.12
 -4 -22 16 6.78 5.36
 -22 -6 16 -2.06 4.48
 22 -6 -16 -1.32 4.17
 -6 -22 16 -4.77 5.77
 22 6 -16 -1.76 4.11
 22 -8 -16 -1.36 4.35
 -22 -8 16 3.32 4.85
 -8 -22 16 4.86 5.53
 -22 -10 16 -1.71 5.24
 22 -10 -16 -2.76 4.49
 -10 -22 16 -3.02 5.17
 -22 -10 -16 8.16 3.91
 22 -12 -16 2.75 4.49
 -22 -12 16 6.74 5.38
 -12 -22 16 10.47 5.34
 -22 -14 16 3.59 5.06
 -14 -22 16 3.52 5.33
 -22 -16 16 5 5.3
 -16 -22 16 8.81 4.75
 -22 -18 16 0.76 4.88
 -18 -22 16 4.11 4.95
 -22 -20 16 4.95 4.68
 -20 -22 16 6.67 4.74
 -22 -22 16 3.44 5.11
 1 -23 16 0.76 5.89
 23 -1 -16 3.13 4.01
 -1 -23 16 -2.8 6.05
 23 1 -16 -4.62 3.88
 23 -3 -16 -3.49 4.05
 -3 -23 16 -2.47 5.43
 23 3 -16 5.24 4.03
 -23 -5 16 2.81 4.59
 23 -5 -16 -2.58 4.33
 -5 -23 16 1.69 6.04
 -23 -7 16 -4.14 4.68
 23 -7 -16 7.48 4.33
 -7 -23 16 2.42 5.25
 -23 -9 16 2.7 4.87
 23 -9 -16 1.57 4.28
 -9 -23 16 -0.15 4.86
 23 -11 -16 -5.39 4.6
 -23 -11 16 4.44 5.17
 -11 -23 16 7.06 4.93
 -23 -11 -16 5.44 3.99
 -23 -13 16 7.36 5.21
 23 -13 -16 -0.71 4.66
 -13 -23 16 0.12 4.52
 -23 -13 -16 2.1 4.11
 -23 -15 16 4.87 5.08
 -15 -23 16 -2.15 4.65
 -23 -17 16 4.1 5.49
 -17 -23 16 12.68 5.32
 -23 -19 16 -3.34 5.11
 -19 -23 16 -1.88 4.43
 0 -24 16 14.08 5.57
 24 0 -16 7.8 4.04
 24 -2 -16 10.01 4.1
 24 2 -16 6.35 4.15
 -2 -24 16 12.81 5.39
 24 -4 -16 -1.72 4.2
 -4 -24 16 -6.53 5.97
 -24 -6 16 4.19 4.57
 24 -6 -16 -1.83 4.43
 -6 -24 16 -2.89 4.96
 -24 -8 16 5.37 4.91
 24 -8 -16 6.58 4.39
 -8 -24 16 8.8 5.46
 -24 -10 16 2.87 5.24
 24 -10 -16 4.09 4.39
 -24 -10 -16 5.62 3.62
 -10 -24 16 -4.86 5.52
 -24 -12 16 0.33 5.25
 24 -12 -16 5.71 4.57
 -12 -24 16 -0.37 5.26
 -24 -12 -16 0.67 3.97
 -24 -14 16 -3.95 5.1
 24 -14 -16 -2.5 4.59
 -14 -24 16 -2.01 4.92
 -24 -16 16 7.09 5.26
 -16 -24 16 3.92 4.49
 -24 -16 -16 6.04 4.35
 -24 -18 16 1.02 5.05
 -18 -24 16 5.55 4.74
 1 -25 16 7.33 5.62
 25 -1 -16 3.33 4.02
 25 1 -16 1.63 3.97
 -1 -25 16 -6.84 5.65
 25 -3 -16 6.41 4.09
 -3 -25 16 7.49 5.78
 25 3 -16 6.66 3.98
 25 -5 -16 7.42 4.41
 -5 -25 16 0.39 5.03
 25 5 -16 1.76 4.01
 -25 -7 16 1.86 4.65
 -7 -25 16 -3.46 5.41
 25 -9 -16 -2.92 4.46
 -25 -9 16 1.85 4.81
 -9 -25 16 8.19 5.58
 -25 -11 16 -4.06 5.07
 25 -11 -16 7.89 4.48
 -11 -25 16 3.68 5.2
 -25 -11 -16 2.95 3.85
 25 -13 -16 5.71 4.67
 -25 -13 16 10.41 5.32
 -13 -25 16 1.33 5.01
 -25 -13 -16 -3.62 4.04
 -25 -15 16 0.09 5.07
 25 -15 -16 -3.31 4.68
 -25 -15 -16 1.84 4.23
 -15 -25 16 -12.43 5.19
 -25 -17 16 12.03 5.47
 -17 -25 16 9.96 4.9
 -25 -17 -16 9.82 4.48
 26 0 -16 59.34 4.78
 0 -26 16 61.61 6.04
 26 -2 -16 59.23 4.79
 26 2 -16 48.09 4.69
 26 -4 -16 46.26 4.68
 26 4 -16 31.19 4.35
 -4 -26 16 41.13 5.96
 26 -6 -16 27.56 4.58
 -6 -26 16 28.69 5.45
 26 -8 -16 16.29 4.66
 -8 -26 16 21.78 5.69
 -26 -10 16 8.74 4.98
 26 -10 -16 3.69 4.6
 -10 -26 16 3.99 4.78
 -26 -12 16 4.4 5.13
 26 -12 -16 5.13 4.45
 -12 -26 16 -0.97 4.46
 26 -14 -16 6.1 4.35
 -14 -26 16 4.98 4.39
 -26 -14 -16 1.33 4.15
 -16 -26 16 5.21 4.55
 -26 -16 -16 9.69 4.24
 1 -27 16 -1.08 5.76
 27 -1 -16 1.04 4.01
 -1 -27 16 7.8 5.73
 27 1 -16 7.38 4.09
 27 -3 -16 13.07 4.14
 -3 -27 16 9.17 5.47
 27 3 -16 9.16 3.95
 27 -5 -16 7.82 4.22
 -5 -27 16 2.06 4.87
 -27 -7 16 4.73 4.7
 27 -7 -16 5.7 4.52
 -7 -27 16 18.27 5.6
 -27 -9 16 6.16 4.85
 27 -9 -16 11.78 4.54
 -9 -27 16 2.24 4.79
 27 -11 -16 -0.5 4.54
 -27 -11 16 11.92 5.01
 -11 -27 16 9.37 4.45
 27 -13 -16 5.77 4.38
 -27 -13 16 2.16 5.21
 -13 -27 16 8.08 4.45
 -27 -13 -16 5 5.45
 27 -15 -16 1.2 4.27
 -27 -15 16 3.55 5.35
 -15 -27 16 7.3 4.23
 0 -28 16 3.22 4.86
 28 -2 -16 12.18 3.99
 28 2 -16 10.42 3.81
 -2 -28 16 6.35 4.92
 28 -4 -16 5.17 4.14
 -4 -28 16 9.51 5.56
 28 -6 -16 8.54 4.26
 -6 -28 16 0.19 4.93
 -28 -8 16 -8.13 4.47
 28 -8 -16 1.9 4.39
 -8 -28 16 0.64 5.12
 28 -10 -16 1.47 4.47
 -28 -10 16 5.21 4.84
 -10 -28 16 1.55 4.36
 28 -12 -16 0.44 5.48
 -28 -12 16 1.76 5.04
 -12 -28 16 5.84 4.58
 1 -29 16 -7.07 5.14
 29 -1 -16 -0.64 3.91
 -1 -29 16 -0.43 5.14
 29 1 -16 2.52 3.76
 29 -3 -16 -5.42 3.86
 -3 -29 16 -0.36 4.69
 29 -5 -16 3.78 4.11
 -5 -29 16 1.67 4.65
 29 -7 -16 -5.07 5.22
 -7 -29 16 6.28 5.02
 -29 -9 16 -5.09 4.52
 -9 -29 16 5.82 4.42
 -29 -11 16 -2.61 4.7
 -11 -29 16 -0.89 4.28
 30 0 -16 -0.75 3.98
 0 -30 16 -0.14 5.29
 2 -30 16 7.96 5.18
 30 2 -16 4.93 3.7
 -2 -30 16 0.46 5.28
 -4 -30 16 11.61 5.08
 -6 -30 16 5.65 4.25
 -8 -30 16 1.7 4.99
 1 -31 16 -0.87 4.92
 -1 -31 16 -2.29 4.65
 1 0 -17 106.47 6.04
 0 1 -17 93.3 5.67
 2 -1 -17 129.61 7.51
 1 2 -17 116.51 7.49
 -2 -1 17 121.89 7.75
 1 -2 17 113.03 7.09
 2 1 -17 109.92 7.39
 -1 -2 17 122.53 7.32
 3 0 -17 116.78 7.43
 0 -3 17 115.24 7.23
 2 -3 17 6.61 3.83
 2 3 -17 2.55 3.7
 -3 -2 17 9.45 4.16
 3 2 -17 6.27 3.96
 -2 -3 17 -3.62 4.36
 3 -2 17 3.41 3.82
 1 4 -17 10.98 3.76
 1 -4 17 15.8 3.84
 -4 -1 17 19.95 4.32
 4 -1 -17 12.04 4.22
 -4 1 -17 8.58 3.21
 4 1 -17 6.22 4.08
 -1 -4 17 9.06 4.46
 3 4 -17 -4.81 3.84
 -4 -3 17 1.77 4.32
 3 -4 17 1.6 3.91
 4 -3 17 3.02 3.45
 4 3 -17 3.2 4.05
 -3 -4 17 -6.99 4.35
 5 0 -17 223.88 10.7
 0 -5 17 250.18 10.67
 -5 0 -17 226.62 9.93
 5 -2 -17 240.37 11.13
 -5 -2 17 237.93 10.96
 2 -5 17 249.54 10.91
 2 5 -17 243.16 10.88
 5 2 -17 236.54 10.96
 -2 -5 17 246.08 11.37
 -5 -4 17 106.83 7.5
 4 5 -17 92.32 7.16
 4 -5 17 104.62 6.53
 -4 -5 17 111.35 7.41
 5 -4 17 88.79 6.14
 5 4 -17 104.7 7.37
 1 -6 17 21.89 4.16
 6 -1 -17 31.47 4.42
 -6 -1 17 21.4 4.13
 1 6 -17 18.66 4.13
 -6 1 -17 23.82 3.06
 6 1 -17 20.39 4.71
 -1 -6 17 30.49 4.76
 -6 -3 17 0.37 4.22
 3 -6 17 4.62 3.87
 -6 3 -17 1.73 2.97
 3 6 -17 4.06 4.11
 -3 -6 17 -2.76 4.38
 6 3 -17 4.31 4.42
 6 -3 17 5.71 3.15
 5 -6 17 6.5 3.73
 5 6 -17 5.93 4.41
 -6 -5 17 9.55 4.4
 -5 -6 17 8.26 4.68
 6 -5 17 5.03 3.26
 6 5 -17 7.62 4.08
 -7 0 -17 214.93 9.32
 7 0 -17 228.38 10.43
 0 -7 17 227.2 10.58
 2 -7 17 207.64 9.25
 2 7 -17 189.2 9.39
 -7 -2 17 187.54 9.46
 -7 2 -17 186.4 8.31
 7 -2 -17 195.37 9.77
 7 2 -17 180.12 9.42
 -2 -7 17 193.04 9.86
 -7 -4 17 29.89 4.87
 -7 4 -17 28.71 3.24
 4 -7 17 27.92 4.13
 4 7 -17 25.74 4.56
 7 4 -17 21.7 4.24
 -4 -7 17 22.64 4.41
 7 -4 17 28.86 3.24
 -7 -6 17 70.32 5.26
 6 7 -17 72.69 5.39
 6 -7 17 79.35 6.03
 7 6 -17 84.69 5.37
 7 -6 17 89.49 5.68
 -8 -1 17 3.48 4.06
 1 8 -17 3.76 4.29
 8 -1 -17 9.03 3.92
 1 -8 17 -0.12 4.28
 8 1 -17 0.11 4.15
 -1 -8 17 10.16 4.19
 8 -3 -17 18.74 4.01
 3 8 -17 21.49 4.68
 -8 3 -17 30.43 3
 -8 -3 17 21.83 4.2
 3 -8 17 29.95 4.34
 8 3 -17 20.01 4.16
 -3 -8 17 34.7 4.78
 5 8 -17 5.96 4.94
 5 -8 17 13.92 3.91
 -8 -5 17 4.51 4.33
 -5 -8 17 13.04 4.46
 8 5 -17 7.41 4.51
 8 -5 17 3.63 2.9
 7 -8 17 26.8 3.74
 7 8 -17 17.44 4.67
 -8 -7 17 21.91 5.06
 -7 -8 17 31.14 4.71
 8 7 -17 18.66 4.47
 8 -7 17 26.86 3.41
 0 -9 17 178.83 9.36
 9 0 -17 200.16 9.41
 -9 0 -17 174.79 7.74
 -9 -2 17 115.79 7.75
 9 -2 -17 108.85 7.78
 2 -9 17 121.47 7.32
 -2 -9 17 119.03 7.67
 9 2 -17 107.89 7.61
 -9 -4 17 139.62 7.85
 -9 4 -17 136.63 6.3
 4 -9 17 122.8 7.81
 -4 -9 17 132.75 8.24
 9 4 -17 134.47 7.7
 6 -9 17 -0.52 3.9
 -9 -6 17 4.19 4.42
 6 9 -17 13.55 4.49
 9 -6 17 3.27 2.92
 9 6 -17 8.58 4.14
 -9 -8 17 19.13 4.91
 8 -9 17 15.45 3.65
 8 9 -17 14.31 4.89
 -8 -9 17 9.97 4.17
 9 -8 17 19.59 3.32
 1 -10 17 5.62 4.27
 -10 -1 17 5.12 3.96
 10 -1 -17 4.8 4.03
 -1 -10 17 -0.79 4.68
 10 1 -17 5.86 4.22
 3 -10 17 1.23 4.25
 10 -3 -17 12.77 4.17
 -10 -3 17 6.9 4.31
 -3 -10 17 3.42 4.54
 10 3 -17 8.23 3.9
 -10 -5 17 -4.41 4.2
 5 -10 17 -4.19 4.07
 -5 -10 17 11.09 4.97
 10 5 -17 -2.75 4.07
 -10 -7 17 49.16 5.15
 7 -10 17 53.42 4.46
 10 7 -17 40.71 4.67
 10 -7 17 48.22 3.54
 -7 -10 17 52.98 5.53
 9 -10 17 -1.87 3.53
 -10 -9 17 -5.56 4.14
 10 9 -17 4.83 4.97
 10 -9 17 -0.41 3.27
 -9 -10 17 3.48 4.64
 0 -11 17 24.84 4.8
 2 -11 17 22.85 4.52
 11 -2 -17 11.83 4.07
 -11 -2 17 12.05 4.06
 11 2 -17 14.18 3.85
 -2 -11 17 17.66 4.53
 -11 -4 17 15.72 4.4
 4 -11 17 21.15 4.64
 -4 -11 17 14.06 4.92
 11 4 -17 12.68 3.91
 6 -11 17 4.5 4.3
 -11 -6 17 12.86 4.69
 -6 -11 17 4.8 4.53
 11 6 -17 12.17 4.31
 -11 -8 17 33.39 4.63
 8 -11 17 30.29 4.17
 11 -8 17 30.32 3.08
 11 8 -17 24.89 4.96
 -8 -11 17 29.32 4.9
 -11 -10 17 62.79 5.17
 10 -11 17 60.15 4.51
 -10 -11 17 68.14 5.48
 11 -10 17 64.09 4.19
 1 -12 17 1.77 4.73
 12 -1 -17 -5.59 4.04
 12 1 -17 -4.12 3.94
 -1 -12 17 -9.66 4.38
 12 -3 -17 6.31 4.11
 -12 -3 17 4.77 3.94
 3 -12 17 9.23 4.7
 -3 -12 17 5.06 4.77
 12 3 -17 8.9 3.85
 5 -12 17 0.24 4.55
 -12 -5 17 8.03 4.22
 -5 -12 17 6.75 4.98
 12 5 -17 6.01 4.25
 -12 -7 17 8.48 4.52
 7 -12 17 -1.88 4.19
 -7 -12 17 -2.27 4.98
 12 7 -17 6.54 4.5
 9 -12 17 8.14 4.13
 -12 -9 17 0.64 4.43
 12 -9 17 6.69 2.91
 12 9 -17 8.53 4.55
 11 -12 17 14.15 3.81
 -12 -11 17 12.82 4.4
 12 -11 17 10.74 3.42
 -11 -12 17 2.85 4.55
 0 -13 17 527.39 20.74
 13 0 -17 513.24 20.48
 2 -13 17 411.57 16.44
 13 -2 -17 409.01 16.15
 -13 -2 17 387.18 16.02
 13 2 -17 400.8 16.09
 -2 -13 17 379.37 16.45
 13 -4 -17 225.54 10.19
 -13 -4 17 215.94 10.33
 4 -13 17 228.69 10.37
 -4 -13 17 211.98 10.53
 13 4 -17 196.08 9.9
 6 -13 17 55.42 5.27
 -13 -6 17 60.89 5
 13 6 -17 53.85 4.77
 -6 -13 17 44.68 5.16
 8 -13 17 13.7 4.43
 -13 -8 17 10.34 4.3
 -8 -13 17 2.5 4.8
 13 8 -17 20.02 4.37
 -13 -10 17 9.08 4.32
 10 -13 17 -2.88 4.16
 -10 -13 17 1.39 4.3
 12 -13 17 11.17 3.9
 -13 -12 17 -0.4 4.46
 13 -12 17 3.09 3.43
 -12 -13 17 5.14 4.79
 14 -1 -17 -4.63 3.98
 1 -14 17 -0.86 5.24
 -1 -14 17 -5.77 4.88
 14 1 -17 3.17 3.93
 -14 -3 17 18.59 4.32
 14 -3 -17 13.42 4.01
 3 -14 17 20.67 5.28
 -3 -14 17 23.12 5.57
 14 3 -17 10.35 4.02
 -14 -5 17 24.79 4.31
 14 -5 -17 25.77 4.25
 5 -14 17 23.15 4.97
 14 5 -17 19.44 4.01
 -5 -14 17 33.56 4.88
 7 -14 17 27.12 4.76
 -14 -7 17 27.89 4.65
 14 7 -17 31.08 4.66
 -7 -14 17 30.88 4.97
 9 -14 17 16.08 4.45
 -9 -14 17 21.48 5.05
 14 9 -17 29.78 5
 11 -14 17 51.77 4.64
 -14 -11 17 57.38 5.25
 -11 -14 17 50.91 5.4
 14 -11 17 53.38 3.78
 -14 -13 17 25.84 4.83
 13 -14 17 21.76 4
 -13 -14 17 15.61 4.44
 0 -15 17 -3.91 4.91
 15 0 -17 -4.43 3.93
 2 -15 17 -4.11 5.15
 15 -2 -17 -1.3 4.01
 -15 -2 17 7.27 4.1
 -2 -15 17 6.31 5.64
 15 2 -17 10.8 3.93
 15 -4 -17 7.57 4
 -15 -4 17 8.83 4.12
 4 -15 17 11.18 5.1
 -4 -15 17 7.79 4.74
 15 4 -17 2.43 3.98
 15 -6 -17 4.65 4.2
 -15 -6 17 2.33 4.18
 -6 -15 17 1.74 4.56
 15 6 -17 -2.92 3.97
 8 -15 17 13.86 4.64
 -15 -8 17 7.43 4.53
 -8 -15 17 0.55 4.5
 15 8 -17 7.7 4.47
 -15 -10 17 34.03 4.87
 10 -15 17 29.57 4.64
 -10 -15 17 25.45 4.69
 12 -15 17 13.12 4.24
 -15 -12 17 18.66 4.69
 15 -12 17 13.03 3.17
 -12 -15 17 5.66 5.1
 -15 -14 17 22.24 5.24
 14 -15 17 23.76 4.04
 15 -14 17 24.1 3.87
 -14 -15 17 20.67 4.79
 16 -1 -17 2.81 3.91
 1 -16 17 -1.32 5.19
 16 1 -17 1.79 3.82
 -1 -16 17 -4.61 5.55
 3 -16 17 11.28 5.07
 16 -3 -17 18.64 4.13
 -16 -3 17 17.93 4.26
 16 3 -17 18.35 3.94
 -3 -16 17 19.45 5.13
 5 -16 17 19.84 5.26
 -16 -5 17 8.15 4.33
 16 5 -17 18.05 4.11
 -5 -16 17 9.53 5
 7 -16 17 26.29 4.94
 16 -7 -17 19.43 4.32
 -7 -16 17 21.44 5.12
 -16 -9 17 14.05 4.58
 9 -16 17 27.8 4.7
 -9 -16 17 19.56 4.68
 16 9 -17 29.73 5
 -16 -11 17 37.85 4.92
 -11 -16 17 25.83 4.71
 -16 -13 17 29.44 4.99
 13 -16 17 28.17 4.41
 16 -13 17 27.85 3.44
 -13 -16 17 23.29 5.27
 -16 -15 17 4.1 5.16
 15 -16 17 6.31 4
 16 -15 17 11.54 3.71
 -15 -16 17 8.42 4.75
 0 -17 17 176.69 10.9
 17 0 -17 210.16 9.45
 17 -2 -17 157.72 8.4
 2 -17 17 151.32 9.79
 17 2 -17 163.97 8.24
 -2 -17 17 144.12 9.6
 -17 -4 17 97.49 7.15
 17 -4 -17 89.92 6.9
 4 -17 17 106.17 6.59
 -4 -17 17 77.74 6.41
 17 4 -17 89.25 6.71
 6 -17 17 29.28 5.19
 17 -6 -17 22.85 4.25
 -17 -6 17 20.69 4.47
 -6 -17 17 19.84 5.38
 17 6 -17 33.92 4.64
 8 -17 17 1.58 4.96
 17 -8 -17 1.65 4.21
 -8 -17 17 5.56 4.87
 17 8 -17 -1 4.45
 10 -17 17 -7.22 4.66
 -17 -10 17 -3.32 4.71
 -10 -17 17 2.22 4.64
 12 -17 17 1.66 4.51
 -17 -12 17 2.59 4.97
 -12 -17 17 1.19 4.67
 14 -17 17 -7.31 4.29
 -17 -14 17 0.08 4.55
 -14 -17 17 6.6 5.34
 -17 -16 17 5.35 5.25
 16 -17 17 1.94 4.01
 17 -16 17 2.17 3.65
 -16 -17 17 3.59 4.54
 1 -18 17 11.06 5.67
 18 -1 -17 9.57 4.1
 18 1 -17 -4.91 3.8
 -1 -18 17 -0.85 5.14
 3 -18 17 16.22 5.58
 -18 -3 17 8.67 4.14
 18 -3 -17 18.02 4.09
 18 3 -17 15.86 4.13
 -3 -18 17 26.37 6
 -18 -5 17 28.4 4.59
 18 -5 -17 26.43 4.31
 5 -18 17 31.3 5.46
 -5 -18 17 17.55 5.17
 18 5 -17 27.2 4.31
 -18 -7 17 36.62 4.96
 18 -7 -17 50.11 4.79
 7 -18 17 36.51 5.28
 18 7 -17 41.1 4.57
 18 -9 -17 34.73 4.43
 -18 -9 17 38.9 4.94
 9 -18 17 27.69 5.24
 -9 -18 17 27.25 5.06
 -18 -11 17 63.28 5.9
 11 -18 17 52.81 5.36
 -18 -13 17 21.93 4.83
 -13 -18 17 18.46 5.19
 15 -18 17 19.88 4.42
 -18 -15 17 8.33 4.75
 -15 -18 17 16.27 4.95
 -18 -17 17 12.49 5.49
 17 -18 17 2.89 4.05
 -17 -18 17 7.65 4.92
 0 -19 17 5.99 5.75
 19 0 -17 7.12 3.97
 2 -19 17 -0.27 5.73
 19 2 -17 -1.38 3.91
 -2 -19 17 -0.32 5.22
 19 -4 -17 -8.43 3.96
 4 -19 17 -11.11 5.44
 -19 -4 17 -3.45 4.32
 19 4 -17 6.81 4.13
 -4 -19 17 -7.49 5.91
 -19 -6 17 3.47 4.47
 19 -6 -17 -1.34 4.19
 19 6 -17 10.5 4.26
 -6 -19 17 -1.48 5.31
 -19 -8 17 3.59 4.84
 8 -19 17 1.45 5.15
 19 -8 -17 0.51 4.2
 -8 -19 17 6.35 4.94
 19 8 -17 7.03 4.32
 -19 -10 17 -0.5 4.73
 -10 -19 17 3.39 4.95
 -19 -12 17 -2.49 4.89
 -12 -19 17 4.8 5.35
 -19 -14 17 -1.25 4.98
 14 -19 17 -7.46 4.39
 -14 -19 17 -6.49 5.06
 -19 -16 17 -8.16 4.64
 16 -19 17 -7.25 4.28
 -16 -19 17 -1.21 4.59
 -19 -18 17 3.06 4.97
 18 -19 17 3.35 3.99
 1 -20 17 -3.16 5.77
 20 -1 -17 1.92 3.85
 20 1 -17 3.59 4.09
 -1 -20 17 -7.43 5.57
 3 -20 17 14.42 5.73
 20 -3 -17 14.1 4.22
 -3 -20 17 14.73 5.64
 20 3 -17 7.58 3.99
 -20 -5 17 17.97 4.5
 5 -20 17 8.15 5.59
 20 -5 -17 21.77 4.29
 20 5 -17 14.3 4.39
 -5 -20 17 12.6 5.51
 -20 -7 17 6.37 4.93
 20 -7 -17 16.13 4.2
 -7 -20 17 22.96 5.85
 -20 -9 17 17.19 5.02
 20 -9 -17 15.76 4.44
 -9 -20 17 17.07 5.84
 -20 -11 17 22.17 5.16
 -11 -20 17 18.59 5.59
 -20 -13 17 14.66 5.09
 -13 -20 17 13.39 5.14
 -20 -15 17 9.14 5.12
 15 -20 17 11.57 4.55
 -15 -20 17 10.55 4.57
 -20 -17 17 2.72 4.78
 17 -20 17 6.22 4.29
 -17 -20 17 4.29 5.28
 -20 -19 17 -1.39 4.66
 -19 -20 17 -3.26 4.61
 0 -21 17 -5.25 5.78
 21 0 -17 6.73 4.05
 21 -2 -17 -7.29 4
 2 -21 17 -3.07 5.62
 -2 -21 17 -0.62 5.43
 21 2 -17 -0.6 4.07
 21 -4 -17 -6.51 4.17
 4 -21 17 -4.5 5.61
 -21 -4 17 1.79 4.43
 -4 -21 17 -4.03 5.98
 21 4 -17 2.25 4.06
 -21 -6 17 0.23 4.63
 21 -6 -17 1.88 4.15
 21 6 -17 -0.41 4.08
 -6 -21 17 -1.22 5.41
 -21 -8 17 10.2 4.78
 21 -8 -17 -0.16 4.35
 -8 -21 17 -0.44 4.97
 21 -10 -17 3.91 4.43
 -21 -10 17 6.25 4.92
 -10 -21 17 -2.11 4.91
 -21 -12 17 2.13 5.03
 -12 -21 17 -7.11 4.53
 -21 -14 17 0.27 5.41
 -14 -21 17 3.71 4.93
 -21 -16 17 3.44 5.16
 16 -21 17 0.62 4.52
 -16 -21 17 -4.94 5.38
 18 -21 17 1.22 4.23
 -21 -18 17 3 5.31
 -18 -21 17 -7.51 4.57
 -21 -20 17 -8.14 5.07
 -20 -21 17 -4.99 5.24
 1 -22 17 3.02 5.46
 22 -1 -17 1.26 4.09
 22 1 -17 0.35 4.05
 -1 -22 17 -0.8 5.39
 3 -22 17 6.62 5.37
 -3 -22 17 9.93 6.22
 22 3 -17 4.8 3.99
 22 -5 -17 4.63 4.23
 -22 -5 17 -3.44 4.53
 22 5 -17 2.59 4.05
 -5 -22 17 4.68 5.21
 -22 -7 17 8.59 4.63
 22 -7 -17 -1.98 4.31
 -7 -22 17 -0.95 5.65
 -22 -9 17 7.78 5.06
 -9 -22 17 10.69 5.9
 -22 -9 -17 15.06 3.69
 22 -11 -17 4.94 4.57
 -22 -11 17 7.07 4.89
 -11 -22 17 17.53 5.71
 -22 -13 17 9.27 5.37
 -13 -22 17 16.52 5.58
 -22 -15 17 3.31 5.43
 -15 -22 17 4.93 5.05
 -22 -17 17 9.81 4.97
 17 -22 17 1.02 4.58
 -17 -22 17 1.83 4.53
 -22 -19 17 7.2 4.87
 -19 -22 17 -6.55 5.11
 -22 -21 17 -2.26 4.55
 -21 -22 17 1.96 4.49
 0 -23 17 -4.26 5.67
 23 0 -17 0.91 4.09
 2 -23 17 -7.8 5.47
 23 -2 -17 1.77 4.05
 23 2 -17 1.84 3.89
 -2 -23 17 5.65 6.03
 23 -4 -17 3.15 4.26
 -4 -23 17 4.94 5.21
 23 4 -17 4.85 4.13
 23 -6 -17 -8.11 4.34
 -23 -6 17 0.22 4.5
 23 6 -17 5.18 4.22
 -6 -23 17 -1.45 6.08
 23 -8 -17 2.58 4.3
 -8 -23 17 3.64 5.22
 23 -10 -17 0.83 4.37
 -23 -10 17 6.74 4.97
 -10 -23 17 -5.76 4.79
 -23 -10 -17 -6.17 3.67
 -23 -12 17 -10.41 5.05
 23 -12 -17 -0.96 4.6
 -12 -23 17 7.88 4.62
 -23 -12 -17 0.28 4
 -23 -14 17 3.59 5.39
 -14 -23 17 -2.85 4.63
 -23 -16 17 10.07 5.42
 16 -23 17 -2.44 4.76
 -16 -23 17 2.02 5.02
 18 -23 17 -2.11 4.39
 -23 -18 17 3.04 5.05
 -18 -23 17 -4.51 4.9
 -23 -20 17 -2.72 4.91
 24 -1 -17 0.08 4.17
 1 -24 17 4.86 5.95
 -1 -24 17 -7.27 5.62
 24 1 -17 1.7 3.98
 24 -3 -17 8.99 4.15
 24 3 -17 5.06 4.16
 -3 -24 17 6.38 5.16
 24 -5 -17 -3.49 4.45
 -5 -24 17 4.14 5.99
 24 5 -17 -1.37 4.09
 24 -7 -17 -4.12 4.39
 -24 -7 17 0.95 4.68
 -7 -24 17 7.38 4.9
 24 -9 -17 7.52 4.54
 -24 -9 17 0.77 5.05
 -9 -24 17 -9.42 5.22
 -24 -11 17 -2.08 4.96
 24 -11 -17 -1.95 4.43
 -11 -24 17 1.8 5.23
 -24 -11 -17 2.94 3.77
 24 -13 -17 -0.13 4.66
 -24 -13 17 4.18 5.28
 -24 -13 -17 5.65 4.19
 -13 -24 17 0.58 5.16
 -24 -15 17 4.5 5.56
 -15 -24 17 -1.99 4.82
 -24 -15 -17 -4.39 4.19
 17 -24 17 -3.01 4.63
 -24 -17 17 5.92 5.23
 -17 -24 17 1.24 4.35
 -24 -19 17 -1.93 5.17
 25 0 -17 45.83 4.55
 2 -25 17 24.47 5.5
 25 -2 -17 27.35 4.44
 -2 -25 17 37.47 5.86
 25 2 -17 39.49 4.4
 4 -25 17 14.72 5.77
 25 4 -17 18.43 4.19
 -4 -25 17 16.67 6.11
 25 -6 -17 17.32 4.72
 -25 -6 17 10.24 4.78
 -6 -25 17 6.27 4.97
 -25 -8 17 8.11 4.73
 25 -8 -17 7.92 4.53
 -8 -25 17 5.61 5.46
 25 -10 -17 5.61 4.43
 -25 -10 17 6.7 5.02
 -10 -25 17 13.17 5.72
 -25 -12 17 -0.83 5.28
 -12 -25 17 -4.42 5.08
 -25 -14 17 2.8 5.5
 25 -14 -17 3.4 4.85
 -14 -25 17 -2.51 5.06
 -25 -14 -17 1.65 4.16
 25 -16 -17 2.71 4.63
 16 -25 17 -1.85 4.86
 -25 -16 17 -3.98 5.33
 -16 -25 17 -1.24 5.19
 -25 -16 -17 10.28 4.35
 -25 -18 17 1.34 4.9
 18 -25 17 -4.3 4.97
 -18 -25 17 2.85 4.76
 -25 -18 -17 6.06 4.3
 26 -1 -17 0.79 4.11
 1 -26 17 2.54 5.79
 -1 -26 17 4.95 5.63
 26 1 -17 8.36 3.96
 26 -3 -17 -2.3 4.25
 3 -26 17 3.65 5.51
 26 3 -17 0.74 3.99
 26 -5 -17 11.24 4.31
 -5 -26 17 1.02 5.18
 26 5 -17 3.37 3.99
 26 -7 -17 4.2 4.5
 -26 -7 17 1.43 4.64
 -7 -26 17 8.97 5.35
 -26 -9 17 -7.96 4.88
 26 -9 -17 -3.84 4.41
 -9 -26 17 2.84 5.45
 26 -11 -17 4.43 4.42
 -11 -26 17 4.79 4.64
 26 -13 -17 2.58 4.49
 -26 -13 -17 5.44 4.11
 -13 -26 17 -6.34 4.39
 26 -15 -17 0.24 4.68
 -26 -15 17 -2.49 5.38
 -15 -26 17 0.95 4.31
 -26 -15 -17 6.71 4.25
 0 -27 17 62.96 6.02
 27 0 -17 78.38 6.26
 27 -2 -17 63.56 5.02
 2 -27 17 63.63 6.02
 -2 -27 17 58.99 5.94
 27 2 -17 56.41 4.87
 4 -27 17 39.43 5.99
 27 -4 -17 40.79 4.69
 -4 -27 17 52.3 6.27
 27 4 -17 39.88 4.44
 27 -6 -17 16.85 4.45
 -6 -27 17 6.87 4.96
 27 -8 -17 9.64 4.66
 -8 -27 17 18.11 5.6
 27 -10 -17 2.63 4.58
 -10 -27 17 8.53 4.56
 -27 -12 17 -0.68 5.07
 27 -12 -17 8.45 4.57
 -12 -27 17 1.13 4.42
 -27 -14 17 11.13 5.29
 27 -14 -17 1.14 4.41
 -14 -27 17 2.03 4.39
 1 -28 17 -0.12 5.39
 28 -1 -17 6.86 4
 -1 -28 17 1.64 5.37
 28 1 -17 6.11 4.09
 28 -3 -17 -0.93 4.22
 3 -28 17 -0.31 5.04
 -3 -28 17 6.23 5
 28 3 -17 3.45 4.04
 5 -28 17 -0.03 5.54
 28 -5 -17 -3.59 4.28
 -5 -28 17 7.15 4.86
 -7 -28 17 13.61 5.34
 -28 -9 17 8.34 4.74
 28 -9 -17 6.75 4.67
 -9 -28 17 5.86 4.64
 28 -11 -17 11.11 4.53
 -28 -11 17 6.21 5.11
 -11 -28 17 4.8 4.45
 -28 -13 17 -4.92 5.04
 -13 -28 17 -0.13 4.69
 0 -29 17 -7.2 5.42
 29 0 -17 0.76 4
 2 -29 17 -4.46 5.4
 29 -2 -17 3.71 3.92
 29 2 -17 3.24 3.92
 -2 -29 17 13.78 5.58
 4 -29 17 -8.04 5.02
 29 -4 -17 2.51 4.06
 -4 -29 17 9.02 5.31
 6 -29 17 0.09 5.39
 -6 -29 17 -0.43 4.5
 29 -8 -17 6.26 6.66
 -8 -29 17 -0.9 5.17
 -29 -10 17 3.49 4.62
 -10 -29 17 3.79 4.27
 30 -1 -17 2.76 4.43
 1 -30 17 3.97 4.83
 -1 -30 17 -5.7 4.6
 30 1 -17 8.08 3.71
 3 -30 17 6.53 5.43
 -3 -30 17 5.21 4.55
 5 -30 17 5.87 5.06
 -5 -30 17 5.47 5.16
 7 -30 17 -4.29 5.23
 -7 -30 17 6.02 4.87
 0 0 -18 0.44 3.73
 1 -1 -18 5.44 3.8
 1 1 -18 8.06 3.79
 0 2 -18 134.68 7.3
 2 0 -18 122.4 7.61
 -2 -2 18 7.19 4.47
 2 -2 18 6.49 3.83
 2 2 -18 0.54 3.72
 -3 -1 18 4.59 4.3
 3 -1 -18 3.36 3.9
 1 3 -18 5.74 3.86
 1 -3 18 2.47 4.12
 -1 -3 18 -2.43 4.46
 -3 -3 18 10.23 3.96
 3 -3 18 8.76 3.71
 3 3 -18 1.99 4.04
 0 -4 18 -4.29 4.46
 4 0 -18 -3.49 4.45
 -4 0 -18 5.3 3.48
 -4 2 -18 39.47 3.73
 2 4 -18 43.74 4.18
 2 -4 18 41.5 4.25
 4 -2 -18 51.87 4.41
 -4 -2 18 46.33 4.44
 4 2 -18 40.96 4.5
 4 4 -18 -1.83 4.03
 -4 -4 18 -5.65 4.45
 4 -4 18 5.72 3.53
 5 -1 -18 2.67 4.53
 -5 1 -18 3.16 3.23
 1 -5 18 0.85 3.96
 1 5 -18 7.48 4.11
 -1 -5 18 6.19 4.62
 5 1 -18 3.27 4.73
 3 5 -18 0.84 4.12
 -5 3 -18 -5.94 3.14
 -5 -3 18 -1.31 4.18
 3 -5 18 7.37 3.99
 -3 -5 18 0.03 3.98
 5 -3 18 2.5 3.4
 5 3 -18 5.4 4.43
 -5 -5 18 8.06 4.67
 5 -5 18 6.63 3.57
 5 5 -18 9.06 3.8
 0 -6 18 96.08 5.78
 0 6 -18 102.32 6.73
 -6 -2 18 17.3 4.18
 -6 2 -18 7.56 3.09
 6 -2 -18 11.69 4.21
 2 -6 18 15.19 4.12
 2 6 -18 16.52 3.91
 6 2 -18 9.76 4.01
 -2 -6 18 9.39 4.63
 -6 4 -18 16.65 3.35
 4 -6 18 16.45 3.96
 -6 -4 18 13.63 4.32
 4 6 -18 20.62 4.7
 -4 -6 18 11.82 4.84
 6 4 -18 20.11 4.21
 6 -4 18 21.62 3.33
 6 6 -18 5.7 4.2
 -6 -6 18 -1.91 4.48
 6 -6 18 0.05 3.53
 7 -1 -18 -1.43 3.93
 1 7 -18 -0.69 4.14
 -7 -1 18 6.31 4.31
 -7 1 -18 -3.22 2.9
 1 -7 18 1.77 4.06
 7 1 -18 -2.08 4
 -7 3 -18 8.04 2.9
 3 7 -18 8.31 4.22
 -7 -3 18 1.04 4.21
 7 -3 -18 6.43 3.91
 7 3 -18 -0.6 4.27
 -3 -7 18 13.57 4.43
 5 -7 18 5.85 3.69
 5 7 -18 7.28 4.49
 -7 -5 18 2.94 4.11
 -5 -7 18 11.1 4.94
 7 -5 18 7.36 3.13
 7 5 -18 5.1 4.44
 -7 -7 18 10.46 4.36
 7 -7 18 19.75 3.57
 7 7 -18 13.53 4.5
 -8 0 -18 55.83 3.52
 0 -8 18 56.6 5.08
 8 0 -18 53.64 4.95
 -8 2 -18 82.28 5.18
 2 -8 18 83.21 7.1
 8 -2 -18 91.31 5.62
 8 2 -18 100.8 5.79
 -8 -4 18 32.35 4.6
 4 8 -18 27.52 4.81
 -8 4 -18 38.89 3.25
 4 -8 18 32.93 4.29
 8 4 -18 31.34 4.5
 -4 -8 18 25.82 4.66
 6 8 -18 37.79 4.88
 6 -8 18 52.87 4.24
 8 -6 18 53.55 3.79
 8 6 -18 46.69 4.74
 -6 -8 18 45.3 4.86
 8 8 -18 10.18 4.26
 -8 -8 18 6.03 4.08
 -9 1 -18 7.18 2.58
 1 -9 18 8.86 4.3
 -9 -1 18 3.81 4.02
 9 -1 -18 2.21 4.35
 1 9 -18 5.52 4.62
 -1 -9 18 -0.89 4.12
 9 -3 -18 -1.39 4.03
 3 -9 18 -0.35 4.3
 -9 3 -18 3.3 2.63
 3 9 -18 -1.62 4.31
 -9 -3 18 3.52 4.15
 -3 -9 18 -1.07 4.42
 9 3 -18 -1.23 3.75
 5 -9 18 -5.28 3.91
 -9 -5 18 5.58 4.27
 5 9 -18 -2.98 4.27
 9 5 -18 2.59 4.02
 9 -5 18 3.47 2.8
 7 -9 18 10.01 3.8
 7 9 -18 18.24 4.87
 -9 -7 18 5.61 4.61
 9 -7 18 8.23 3.12
 9 7 -18 4.11 4.45
 -7 -9 18 4.99 4.86
 -9 -9 18 -6.57 4.41
 9 9 -18 11.31 4.78
 9 -9 18 -6.24 3.42
 10 0 -18 -0.89 4.03
 0 -10 18 -0.28 4.44
 -10 0 -18 -0.07 2.4
 -10 -2 18 -2.8 4.33
 10 -2 -18 -4.4 4.24
 2 -10 18 -1.22 4.24
 10 2 -18 0.61 4.16
 -2 -10 18 -5.08 4.17
 4 -10 18 6.84 4.24
 10 -4 -18 14.87 4.18
 -10 -4 18 13.03 4.47
 -4 -10 18 10.77 4.75
 10 4 -18 13.52 4.06
 -10 -6 18 -4.72 4.21
 6 -10 18 -2.65 3.94
 10 6 -18 -7.64 4.13
 10 -6 18 2.22 2.65
 -6 -10 18 7.35 4.25
 8 10 -18 19.26 5.13
 -10 -8 18 6.07 4.34
 8 -10 18 10.27 3.9
 10 -8 18 15.63 3.16
 10 8 -18 7.3 4.44
 -8 -10 18 11.6 4.31
 10 -10 18 1.48 3.38
 10 10 -18 10.27 5.07
 -10 -10 18 -1.34 4.02
 1 -11 18 -0.32 4.39
 11 -1 -18 0.05 4.16
 -1 -11 18 -8 4.31
 11 1 -18 -6.54 4.41
 11 -3 -18 8.41 4.25
 3 -11 18 16.37 4.35
 -11 -3 18 10.93 4
 11 3 -18 5.13 4.16
 -3 -11 18 9.94 5
 -11 -5 18 10.71 4.06
 5 -11 18 16.02 4.19
 -5 -11 18 11.77 4.5
 11 5 -18 10.12 4.01
 7 -11 18 24.78 4.11
 -11 -7 18 22.84 4.5
 11 7 -18 15.94 4.3
 -7 -11 18 16.38 4.33
 11 -7 18 20.8 2.86
 9 -11 18 4.92 3.75
 -11 -9 18 -5.58 4.57
 11 9 -18 6.24 4.64
 -9 -11 18 2.29 4.34
 11 -9 18 3.97 3.06
 -11 -11 18 8.45 4.31
 11 -11 18 17.33 3.5
 12 0 -18 1.84 4.1
 -12 -2 18 6.95 4.37
 2 -12 18 14.34 4.57
 12 -2 -18 0.07 4.06
 12 2 -18 16.74 4.16
 12 -4 -18 1.46 4.07
 -12 -4 18 7.21 4.07
 4 -12 18 -5.41 4.41
 12 4 -18 -1.97 3.86
 -4 -12 18 -3.66 4.44
 6 -12 18 3.04 4.21
 -12 -6 18 3.09 4.33
 12 6 -18 3.22 4.12
 -6 -12 18 -4.01 4.09
 8 -12 18 2.92 3.89
 -12 -8 18 1.44 4.17
 -8 -12 18 3.38 4.31
 10 -12 18 3.71 3.82
 -12 -10 18 5.55 4.44
 -10 -12 18 -0.03 4.4
 12 10 -18 12.27 4.72
 12 -10 18 2.45 3.16
 -12 -12 18 8.09 4.6
 13 -1 -18 7.24 3.93
 1 -13 18 -2.44 4.44
 13 1 -18 0.79 4.02
 -1 -13 18 7.07 4.65
 13 -3 -18 4.28 4.17
 3 -13 18 9.69 4.7
 -13 -3 18 2.36 4.26
 13 3 -18 2.7 3.87
 -3 -13 18 8.79 4.7
 -13 -5 18 21.82 4.25
 13 -5 -18 16.49 4.27
 5 -13 18 19.33 4.8
 -5 -13 18 17.9 5.11
 13 5 -18 21.63 4.3
 7 -13 18 19.67 4.49
 -13 -7 18 16.18 4.48
 13 7 -18 25.43 4.31
 9 -13 18 8.33 4.09
 -13 -9 18 4.91 4.68
 13 9 -18 13.4 4.52
 -9 -13 18 4.41 4.58
 -13 -11 18 15.34 4.75
 11 -13 18 8.96 3.92
 -11 -13 18 17.65 5.01
 13 -13 18 7.14 3.55
 -13 -13 18 9.89 4.64
 14 0 -18 7.39 4.13
 0 -14 18 11.72 4.85
 -14 -2 18 1.33 4.03
 2 -14 18 10.71 4.83
 14 -2 -18 5.86 3.96
 14 2 -18 7.15 3.83
 -2 -14 18 7.51 5.11
 -14 -4 18 17.45 4.09
 14 -4 -18 14.98 4.1
 4 -14 18 10.41 4.77
 14 4 -18 7.34 4.11
 -4 -14 18 7.13 4.58
 14 -6 -18 -1.42 4.04
 6 -14 18 4.5 4.65
 -14 -6 18 -6.04 4.25
 14 6 -18 3.82 4.26
 8 -14 18 10.12 4.54
 14 8 -18 5.97 4.52
 -8 -14 18 -2.21 4.61
 10 -14 18 1.96 4.23
 -14 -10 18 4.66 4.84
 -10 -14 18 -0.48 4.44
 12 -14 18 -2.8 3.87
 -14 -12 18 10.22 4.78
 -12 -14 18 -0.64 4.42
 -14 -14 18 3.82 4.92
 14 -14 18 3.42 3.75
 15 -1 -18 2.03 3.93
 1 -15 18 3.77 4.97
 -1 -15 18 11.09 5.41
 15 1 -18 6.01 3.76
 15 -3 -18 -2.63 4.03
 3 -15 18 14.34 4.95
 -15 -3 18 6.09 4.1
 -3 -15 18 4.47 4.9
 15 3 -18 6.49 3.98
 -15 -5 18 5.45 4.25
 15 -5 -18 6.08 3.95
 5 -15 18 12.42 5.07
 15 5 -18 12.04 3.86
 -5 -15 18 13.16 5.02
 15 -7 -18 12.38 4.01
 -15 -7 18 12.01 4.29
 7 -15 18 5.71 4.85
 15 7 -18 11.45 4.37
 -7 -15 18 21.82 5.11
 -15 -9 18 8.51 4.44
 9 -15 18 9.06 4.55
 15 9 -18 8.38 4.59
 -9 -15 18 8.09 4.97
 -15 -11 18 11.19 4.68
 11 -15 18 10.41 4.33
 -11 -15 18 12.1 4.99
 13 -15 18 1.25 4.01
 -15 -13 18 1.57 4.48
 -13 -15 18 -7.43 4.55
 15 -13 18 2.02 3.3
 -15 -15 18 -0.47 4.72
 16 0 -18 8.73 3.9
 0 -16 18 7.29 5.44
 2 -16 18 5.64 5.57
 16 -2 -18 17.88 4.06
 -2 -16 18 11.94 4.95
 16 2 -18 14.16 3.99
 -16 -4 18 2.43 4.17
 4 -16 18 4.09 5.03
 16 4 -18 0.01 4
 -4 -16 18 8.51 5.41
 6 -16 18 7.72 4.99
 16 -6 -18 0.17 4.07
 16 6 -18 -3.48 4.15
 -6 -16 18 2.29 5.01
 -16 -8 18 2.12 4.71
 8 -16 18 2.28 4.76
 -8 -16 18 -5.19 4.55
 16 8 -18 2.61 4.43
 -16 -10 18 1.2 4.52
 10 -16 18 3.67 4.69
 -10 -16 18 1.87 4.8
 -16 -12 18 6.86 4.67
 12 -16 18 4.64 4.31
 -12 -16 18 3.79 5.09
 -16 -14 18 2.8 4.8
 14 -16 18 -6.2 4.01
 -14 -16 18 0.44 4.75
 -16 -16 18 -3.87 4.61
 16 -16 18 0.09 3.8
 17 -1 -18 -3.7 4.12
 1 -17 18 0.46 5.16
 -1 -17 18 2.1 5.6
 17 1 -18 -1.32 3.89
 3 -17 18 2.68 5.22
 -17 -3 18 4.57 4.23
 17 -3 -18 -4.62 4.21
 -3 -17 18 -1.59 5.4
 17 3 -18 4.63 4.07
 -17 -5 18 2.67 4.3
 5 -17 18 -5.32 5.13
 17 -5 -18 3.56 4.05
 17 5 -18 3.05 4.07
 -5 -17 18 6.53 5.78
 -17 -7 18 -5.5 4.53
 7 -17 18 -0.7 4.97
 -7 -17 18 -0.02 4.86
 17 7 -18 2.95 4.4
 9 -17 18 5.59 4.87
 -17 -9 18 3.01 4.86
 17 9 -18 5.39 4.45
 11 -17 18 -4.55 4.58
 -17 -11 18 1.03 4.86
 -11 -17 18 11.55 4.92
 13 -17 18 0.6 4.42
 -17 -13 18 -7.46 4.88
 -13 -17 18 -0.45 5.29
 17 -13 18 -1.72 2.87
 15 -17 18 -0.5 4.13
 -17 -15 18 -7.8 4.88
 17 -15 18 -1.84 3.3
 -15 -17 18 3.43 4.92
 -17 -17 18 2.71 4.9
 17 -17 18 3.12 3.83
 0 -18 18 5.69 5.16
 18 0 -18 -1.18 3.85
 18 -2 -18 -1.03 3.98
 2 -18 18 18.09 5.54
 -2 -18 18 11.75 5.45
 18 2 -18 4.54 4.02
 18 -4 -18 -4.21 4.09
 -18 -4 18 3.46 4.31
 4 -18 18 2.99 5.33
 18 4 -18 0.51 3.88
 -4 -18 18 4.86 5.35
 18 -6 -18 6.84 4.19
 -18 -6 18 3.62 4.42
 6 -18 18 -0.98 5.31
 -6 -18 18 1.6 5.74
 18 6 -18 0.9 4.27
 -18 -8 18 1.87 4.52
 18 -8 -18 4.28 4.22
 8 -18 18 -7.41 4.97
 -8 -18 18 -2.57 4.85
 18 8 -18 9.04 4.39
 -18 -10 18 8.16 4.95
 -10 -18 18 4.92 4.92
 -18 -12 18 -3.72 4.86
 12 -18 18 3.69 4.57
 -12 -18 18 0 5.18
 14 -18 18 13.57 4.43
 -18 -14 18 5.33 5.17
 -14 -18 18 4.24 5.19
 16 -18 18 -6.39 4.14
 -18 -16 18 -6.34 4.87
 18 -16 18 1.95 3.59
 -16 -18 18 -1.47 4.55
 18 -18 18 1.36 3.77
 -18 -18 18 -3.14 5.25
 1 -19 18 -4.52 5.64
 19 1 -18 4.15 4.08
 19 -3 -18 3.37 4.08
 3 -19 18 1.65 5.62
 -19 -3 18 3.56 4.3
 19 3 -18 10.34 4.08
 -3 -19 18 -2.06 5.44
 19 -5 -18 2.88 4.04
 5 -19 18 3.24 5.29
 -19 -5 18 1.12 4.36
 -5 -19 18 -10.64 5.3
 19 5 -18 -6.07 4.08
 -19 -7 18 10.22 4.57
 19 -7 -18 -0.67 4.17
 7 -19 18 -6.72 5.27
 -7 -19 18 -4.38 5.8
 19 7 -18 -6.24 4.23
 -19 -9 18 4.57 4.71
 19 -9 -18 -4.89 4.27
 11 -19 18 -3.39 4.72
 -19 -11 18 9.66 4.87
 -11 -19 18 -13.09 5.52
 -19 -13 18 0.69 4.99
 13 -19 18 0.02 4.63
 -13 -19 18 -3.09 5.18
 -19 -15 18 2.46 5.14
 15 -19 18 5.05 4.42
 -15 -19 18 5.19 4.7
 -19 -17 18 -7.54 4.97
 17 -19 18 9.44 4.08
 -17 -19 18 0.99 4.87
 -19 -19 18 7.03 4.92
 20 0 -18 -5.88 4
 0 -20 18 -1.7 5.77
 2 -20 18 -2.13 5.75
 20 -2 -18 5.24 4.04
 -2 -20 18 -0.51 5.28
 20 2 -18 -0.9 4.09
 4 -20 18 -9.03 5.43
 20 -4 -18 1.73 4.19
 -20 -4 18 -4.73 4.47
 20 4 -18 -2.9 3.95
 -4 -20 18 -7.89 5.98
 6 -20 18 3.3 5.31
 20 -6 -18 3.97 4.15
 -20 -6 18 -3.59 4.54
 -6 -20 18 3.55 5.18
 20 6 -18 -4.5 4.36
 20 -8 -18 -1.99 4.21
 -20 -8 18 3.31 4.77
 8 -20 18 0.06 5.29
 -8 -20 18 10.69 5.17
 20 8 -18 -3.01 4.4
 -20 -10 18 3.48 4.82
 10 -20 18 5.6 5.15
 -10 -20 18 3.47 5.29
 -20 -12 18 -1.87 5.19
 12 -20 18 -6.11 4.74
 -12 -20 18 -0.99 5.04
 14 -20 18 -4.28 4.7
 -20 -14 18 -3.35 4.83
 -14 -20 18 -2.44 4.46
 16 -20 18 -0.79 4.39
 -20 -16 18 7.97 5.15
 -16 -20 18 8.25 4.88
 -20 -18 18 5.07 4.68
 18 -20 18 3.61 4.11
 -20 -20 18 2.2 4.64
 1 -21 18 -2.28 5.86
 21 -1 -18 2.19 4.07
 21 1 -18 0.73 4.05
 -1 -21 18 -2.94 5.52
 21 -3 -18 -2.25 4.24
 3 -21 18 8.9 5.64
 21 3 -18 7.15 4.03
 -3 -21 18 9.37 5.5
 -21 -5 18 4.3 4.48
 21 -5 -18 8.61 4.36
 5 -21 18 3.91 5.33
 -5 -21 18 2.38 5.75
 21 5 -18 -0.37 4.17
 21 -7 -18 -7.48 4.25
 -21 -7 18 9.42 4.9
 7 -21 18 0.33 5.34
 -7 -21 18 -1.1 5.59
 21 7 -18 2.54 4.3
 21 -9 -18 4.1 4.3
 -21 -9 18 2.06 4.83
 9 -21 18 -6.7 5.27
 -9 -21 18 1.82 5
 11 -21 18 2.32 4.96
 21 -11 -18 6.32 4.44
 -21 -11 18 -3.42 5.12
 -11 -21 18 9.77 4.7
 13 -21 18 2.56 4.85
 -21 -13 18 4.82 5.02
 -13 -21 18 5.6 4.89
 15 -21 18 -4.04 4.67
 -21 -15 18 -0.45 4.95
 -15 -21 18 4.05 5.31
 17 -21 18 -1.18 4.34
 -21 -17 18 -2.85 5.45
 -17 -21 18 3.1 4.95
 -21 -19 18 -4.62 5.05
 -19 -21 18 0.05 4.54
 -21 -21 18 -0.05 4.94
 22 0 -18 -2.44 4.13
 0 -22 18 -0.5 5.38
 2 -22 18 -0.06 5.45
 22 -2 -18 4.66 4.1
 -2 -22 18 3.14 5.49
 22 2 -18 0.26 3.92
 4 -22 18 -7.39 5.35
 22 4 -18 1.32 4.11
 -4 -22 18 3.44 6.13
 -22 -6 18 1.49 4.68
 6 -22 18 -8.92 5.54
 22 6 -18 5.96 4.32
 -6 -22 18 -5 5.15
 -22 -8 18 4.68 4.98
 8 -22 18 0.29 5.21
 22 -8 -18 -0.83 4.29
 -8 -22 18 -3.45 5.63
 -22 -10 18 -8.9 4.91
 10 -22 18 -7.38 4.99
 22 -10 -18 2.09 4.26
 -10 -22 18 -2.37 5.3
 12 -22 18 3.3 4.98
 22 -12 -18 -0.09 4.49
 -22 -12 18 -0.13 4.92
 -12 -22 18 -6 5.28
 14 -22 18 -8.27 4.74
 -22 -14 18 -0.77 5.2
 -14 -22 18 -4.96 5.02
 -22 -16 18 8.5 5.04
 16 -22 18 5.82 4.66
 -16 -22 18 4.68 4.64
 -22 -18 18 -9.52 5.03
 18 -22 18 10.51 4.32
 -18 -22 18 0.34 4.66
 -22 -20 18 2.75 4.86
 -20 -22 18 0.76 4.89
 23 -1 -18 -2.73 4.1
 1 -23 18 -6.29 5.58
 -1 -23 18 3.97 5.76
 23 1 -18 6.35 4.1
 3 -23 18 0.54 5.67
 23 -3 -18 -0.91 4.22
 -3 -23 18 -2.66 6.14
 23 3 -18 1.35 4.03
 23 -5 -18 6.28 4.37
 5 -23 18 1.21 5.66
 -23 -5 18 -9.98 4.63
 23 5 -18 -2.16 4.15
 -5 -23 18 1.6 5.13
 -23 -7 18 2.69 4.6
 23 -7 -18 -4.14 4.39
 -7 -23 18 2.86 5.78
 23 7 -18 2.59 4.31
 23 -9 -18 0.16 4.4
 -23 -9 18 3.35 5.11
 9 -23 18 -3.41 5.25
 -9 -23 18 -2.49 5.38
 -23 -11 18 3.25 5.38
 11 -23 18 -2.95 5.02
 23 -11 -18 0.84 4.38
 -23 -11 -18 -1.35 3.89
 -11 -23 18 7.83 4.76
 -23 -13 18 -1.87 5.11
 13 -23 18 -2.69 4.89
 23 -13 -18 -5.51 4.59
 -13 -23 18 -1.69 4.58
 15 -23 18 -1.02 4.65
 -23 -15 18 -0.19 5.29
 -15 -23 18 1.22 4.78
 -23 -17 18 3.17 5.07
 17 -23 18 13.3 4.65
 -17 -23 18 8.19 5.35
 -23 -19 18 -4.09 4.76
 -19 -23 18 3.39 4.74
 24 0 -18 0.88 4.13
 0 -24 18 -0.96 6.04
 24 -2 -18 -4.84 4.13
 2 -24 18 4.75 6
 -2 -24 18 3.88 5.92
 24 2 -18 3.66 4
 24 -4 -18 -4.82 4.23
 4 -24 18 -1.62 5.64
 -4 -24 18 4.26 5.22
 24 4 -18 4.08 4.11
 -24 -6 18 0.79 4.54
 6 -24 18 -7.46 5.38
 -6 -24 18 -0.99 5.99
 24 6 -18 -1.95 4.12
 24 -8 -18 5.8 4.48
 -24 -8 18 5.41 4.72
 8 -24 18 0.33 5.27
 -8 -24 18 -0.15 4.87
 24 -10 -18 -1.8 4.35
 -24 -10 18 4.05 5.21
 10 -24 18 0.39 5.22
 -10 -24 18 10.15 5.05
 -24 -12 18 -4.23 5.08
 24 -12 -18 2.41 4.41
 12 -24 18 -7.15 4.91
 -12 -24 18 2.9 5.06
 -24 -12 -18 4.92 3.96
 24 -14 -18 7.81 4.78
 14 -24 18 -7.99 4.88
 -24 -14 18 -1.58 5.22
 -14 -24 18 1 4.99
 -24 -14 -18 5.01 4.1
 -24 -16 18 -6.11 5.19
 16 -24 18 5.57 4.78
 -16 -24 18 1.55 4.63
 18 -24 18 6.41 5.38
 -24 -18 18 9.2 5.47
 -18 -24 18 -2.78 4.4
 25 -1 -18 -3.86 4.14
 1 -25 18 -3.43 5.24
 25 1 -18 -0.98 4
 3 -25 18 3.77 5.43
 25 -3 -18 3.57 4.18
 25 3 -18 1.81 4.17
 5 -25 18 -8.55 5.75
 25 -5 -18 6.83 4.38
 -5 -25 18 -2.92 5.84
 25 5 -18 7.51 4.19
 7 -25 18 -3.85 5.23
 -25 -7 18 5.87 4.72
 -7 -25 18 -0.52 4.82
 -25 -9 18 -0.62 5.07
 25 -9 -18 -4.13 4.52
 9 -25 18 -12.08 5.33
 -9 -25 18 4.41 5.43
 -25 -11 18 -9.59 5.28
 25 -11 -18 0.35 4.52
 -25 -11 -18 -2.04 3.7
 -25 -13 18 6.56 5.25
 25 -13 -18 0.07 4.32
 -13 -25 18 -7.13 5.07
 -25 -13 -18 2.08 3.98
 -25 -15 18 -8.91 5.16
 25 -15 -18 -2.8 4.67
 15 -25 18 -0.5 4.82
 -15 -25 18 8.72 5.22
 -25 -15 -18 7.6 4.27
 17 -25 18 -1.45 4.67
 -25 -17 18 5.51 5
 -25 -17 -18 -3.84 4.22
 -17 -25 18 5.47 5.08
 0 -26 18 20.8 5.93
 26 0 -18 14.17 4.2
 26 -2 -18 13.23 4.22
 2 -26 18 12.99 5.95
 26 2 -18 11.77 4.17
 -2 -26 18 15.72 6.01
 4 -26 18 0.28 5.67
 -4 -26 18 21.92 5.71
 26 4 -18 12.49 4.05
 6 -26 18 3.49 5.35
 26 -6 -18 9.4 4.57
 -6 -26 18 -4.72 4.99
 8 -26 18 -4.42 5.22
 26 -8 -18 5.85 4.65
 -26 -8 18 -4.73 4.61
 -8 -26 18 5.4 5.45
 26 -10 -18 -3.48 4.48
 -26 -10 18 2.14 4.98
 -10 -26 18 -10.17 5.05
 26 -12 -18 11.2 4.51
 12 -26 18 -8.11 4.98
 -26 -12 18 -0.73 4.97
 -12 -26 18 2.33 4.48
 14 -26 18 -4.27 4.94
 -26 -14 18 -5.81 5.14
 26 -14 -18 2.23 4.43
 -26 -14 -18 4.15 4.05
 -14 -26 18 4.97 4.38
 26 -16 -18 2.48 4.79
 16 -26 18 -6.31 4.74
 -16 -26 18 -2.49 4.33
 -26 -16 -18 5.79 6.02
 1 -27 18 6.21 5.2
 27 -1 -18 1.1 4.07
 -1 -27 18 2.55 5.31
 27 1 -18 3.43 4.06
 3 -27 18 -1.22 5.2
 27 -3 -18 -0.08 4.24
 -3 -27 18 7.99 4.96
 27 3 -18 9.16 4.01
 5 -27 18 -5.52 5.56
 27 -5 -18 -0.17 4.37
 27 5 -18 1.98 4.06
 -5 -27 18 8.06 5.33
 27 -7 -18 3.43 4.64
 7 -27 18 3.22 5.14
 -7 -27 18 14.2 5.34
 27 -9 -18 2.77 4.62
 9 -27 18 -2.9 5.15
 -27 -9 18 3.75 4.86
 -9 -27 18 -0.45 5.07
 27 -11 -18 -2.49 4.53
 -27 -11 18 3.6 5.14
 -11 -27 18 0.2 4.46
 13 -27 18 -2.38 5.02
 -27 -13 18 0.44 5.19
 27 -13 -18 8.47 4.5
 -13 -27 18 -0.77 4.55
 28 0 -18 -6.43 4.09
 0 -28 18 -5.96 5.7
 2 -28 18 -0.64 5.53
 28 -2 -18 8.86 4.37
 28 2 -18 9.92 4.05
 -2 -28 18 11.93 5.78
 4 -28 18 -6.74 5.15
 28 -4 -18 1.47 4.31
 28 4 -18 -3.11 3.9
 -4 -28 18 3.73 5.51
 6 -28 18 -5.89 5.47
 28 -6 -18 0.65 4.43
 -6 -28 18 0.77 4.62
 -28 -8 18 -1.49 4.77
 28 -8 -18 -1.1 4.55
 8 -28 18 -11.63 5.07
 -8 -28 18 -1.1 5.32
 10 -28 18 -11.89 4.91
 -28 -10 18 -1.39 4.84
 28 -10 -18 -7.21 4.43
 -10 -28 18 -0.56 4.42
 28 -12 -18 8.97 4.61
 -28 -12 18 -2.6 4.88
 1 -29 18 3.3 4.95
 29 -1 -18 10.68 4.05
 -1 -29 18 4.79 4.86
 29 1 -18 3.67 4.17
 3 -29 18 4.84 5.55
 29 -3 -18 11.9 4.2
 -3 -29 18 10.78 4.77
 5 -29 18 -1.13 5.18
 29 -5 -18 -4.52 4.22
 -5 -29 18 9.46 5.21
 29 -7 -18 0.89 4.29
 7 -29 18 -0.38 5.35
 -7 -29 18 4 5.09
 -29 -9 18 0.22 4.56
 9 -29 18 1.54 5.2
 -9 -29 18 4.46 4.55
 0 -30 18 11.09 5.26
 30 -2 -18 2.87 4.62
 2 -30 18 10.45 4.95
 30 2 -18 1.58 3.93
 -2 -30 18 1.89 5.18
 4 -30 18 0.59 5.21
 -4 -30 18 7.5 4.92
 6 -30 18 1.12 5.02
 -6 -30 18 4.6 4.45
 0 1 -19 65.29 4.62
 0 -1 -19 58.43 4.4
 1 0 -19 50.08 4.54
 1 -2 19 8.75 4.26
 1 2 -19 9.42 4.11
 2 -1 -19 6.28 4.04
 -1 -2 19 8.3 4.02
 2 1 -19 3.09 4.42
 3 0 -19 44.01 4.88
 0 3 -19 57.8 4.25
 0 -3 19 49.41 4.65
 3 -2 -19 146.95 7.87
 2 3 -19 126.73 7.67
 -3 -2 19 147.74 8.01
 3 2 -19 133.99 7.96
 -2 -3 19 135.86 8.02
 1 -4 19 20.07 4.25
 -4 -1 19 19.9 4.42
 4 -1 -19 24.27 4.6
 -4 1 -19 13.09 5.18
 1 4 -19 18.25 4.09
 4 1 -19 11.95 4.31
 -1 -4 19 10.72 4.15
 -4 -3 19 11.77 4.32
 3 -4 19 12.1 3.84
 3 4 -19 12.02 4.25
 -3 -4 19 17.55 4.3
 4 3 -19 15.94 4.06
 -5 0 -19 19.53 3.31
 5 0 -19 17.92 4.44
 0 -5 19 17.13 4.53
 2 -5 19 52.44 4.42
 -5 -2 19 45.86 4.95
 -5 2 -19 41.63 3.85
 5 -2 -19 49.78 4.71
 2 5 -19 42.59 4.86
 -2 -5 19 49.36 4.75
 5 2 -19 43.9 4.57
 -5 -4 19 30.1 4.31
 4 5 -19 21.12 4.09
 4 -5 19 27.48 3.86
 5 4 -19 30.99 4.14
 -4 -5 19 38.46 4.84
 5 -4 19 33.71 3.69
 1 6 -19 0.56 4.08
 -6 -1 19 -0.62 4.38
 1 -6 19 -1.15 4.07
 -6 1 -19 5.24 2.97
 6 -1 -19 0.28 3.84
 -1 -6 19 1.93 4.37
 6 1 -19 5.75 4.06
 3 6 -19 22.68 4.27
 6 -3 -19 12.25 3.98
 3 -6 19 22.86 4.22
 -6 -3 19 14.82 4.48
 -6 3 -19 17.15 3.1
 -3 -6 19 15.85 4.68
 6 3 -19 20.45 4.44
 5 6 -19 34 4.6
 5 -6 19 33.31 3.92
 -6 -5 19 21.52 4.64
 6 -5 19 28.47 3.59
 -5 -6 19 39.98 4.97
 6 5 -19 23.81 4.71
 -7 0 -19 300.13 12.35
 0 -7 19 305.93 13.32
 7 0 -19 297.27 13.14
 0 7 -19 331.05 13.15
 2 7 -19 303.4 12.81
 -7 2 -19 294.54 12.07
 2 -7 19 297.91 12.85
 7 -2 -19 299.19 12.82
 -7 -2 19 309.07 12.99
 7 2 -19 284.66 12.87
 -2 -7 19 305.14 12.91
 4 -7 19 186.24 9.09
 -7 -4 19 185.31 9.19
 4 7 -19 172.75 9.22
 -7 4 -19 185.59 8.25
 7 -4 19 177.92 8.25
 7 4 -19 183.95 9.12
 -4 -7 19 189.1 9.48
 -7 -6 19 110.6 7.27
 6 -7 19 106 6.49
 6 7 -19 104.6 6.21
 7 -6 19 92.97 6.05
 -6 -7 19 91.17 7.36
 7 6 -19 87.18 7.12
 -8 -1 19 3.92 4.69
 1 8 -19 4.16 4.43
 8 -1 -19 4.81 4.45
 1 -8 19 7.67 4.42
 -8 1 -19 9.32 2.82
 -1 -8 19 6.92 4.29
 8 1 -19 0.22 3.81
 -8 3 -19 8.98 2.82
 8 -3 -19 12.14 4.06
 3 -8 19 -1.96 4.13
 3 8 -19 4.71 4.46
 -8 -3 19 5.94 4.12
 8 3 -19 4.71 3.88
 -3 -8 19 0.45 4.15
 -8 -5 19 4.15 4.17
 -8 5 -19 2.27 3.04
 5 -8 19 1.31 3.92
 5 8 -19 8.67 4.48
 8 -5 19 10.16 3.06
 -5 -8 19 -7.12 4.14
 8 5 -19 2.86 3.94
 -8 -7 19 6.82 4.55
 7 8 -19 7.13 4.03
 7 -8 19 0.19 3.57
 -7 -8 19 2.8 4.58
 8 -7 19 2.86 3.39
 8 7 -19 5.01 4.69
 0 9 -19 8.13 4.45
 9 0 -19 0.1 4.1
 0 -9 19 -5 4.59
 2 -9 19 9.17 4.23
 9 -2 -19 16.33 4.5
 -9 -2 19 16.44 4.32
 2 9 -19 18.7 4.61
 -2 -9 19 14.53 4.91
 9 2 -19 19.47 4.24
 9 -4 -19 3.93 4.07
 -9 -4 19 7.06 4.14
 4 -9 19 5 4.06
 4 9 -19 7.53 4.69
 -4 -9 19 1.99 4.71
 9 4 -19 2.37 4.21
 6 9 -19 6.29 4.62
 -9 -6 19 -0.23 4.11
 6 -9 19 3.3 3.9
 -6 -9 19 -1.68 4.27
 9 6 -19 2.01 3.86
 9 -6 19 1.16 2.86
 8 -9 19 52.35 4.2
 -9 -8 19 39.2 4.91
 8 9 -19 44.87 5.2
 9 8 -19 42.22 4.95
 9 -8 19 58.23 3.91
 -8 -9 19 52.61 5.04
 -10 1 -19 1.8 2.47
 10 -1 -19 5.04 3.83
 10 1 -19 8.53 4.02
 -1 -10 19 1.75 4.43
 -10 -3 19 8.46 4.06
 10 -3 -19 11.41 4.13
 -10 3 -19 9.33 2.62
 3 -10 19 8.51 4.25
 10 3 -19 7.56 3.88
 -3 -10 19 16.96 4.8
 5 -10 19 3.86 4.04
 5 10 -19 15.31 4.79
 -10 -5 19 -3.79 4.24
 10 5 -19 -2.51 4.11
 -5 -10 19 7.7 4.19
 7 -10 19 12.76 3.87
 -10 -7 19 17.27 4.13
 10 -7 19 16.2 3.08
 -7 -10 19 15.74 4.63
 10 7 -19 14.69 4.07
 9 10 -19 0.9 4.97
 9 -10 19 4.63 3.57
 -10 -9 19 9.61 4.52
 -9 -10 19 4.55 4.79
 10 -9 19 -0.34 3.27
 10 9 -19 1.01 4.87
 0 -11 19 62.4 5.22
 11 0 -19 52.93 4.66
 -11 -2 19 95.72 7.05
 2 -11 19 105.45 7.14
 11 -2 -19 89.82 7.06
 11 2 -19 110.54 7.1
 -2 -11 19 102.83 7.55
 11 -4 -19 27 4.18
 4 -11 19 33.54 4.53
 11 4 -19 40.39 4.34
 -4 -11 19 35.37 4.47
 -11 -6 19 19.71 4.5
 6 -11 19 16.74 4.17
 11 6 -19 17.98 4.05
 11 -6 19 19.62 2.73
 8 -11 19 16.62 3.87
 11 8 -19 21.59 4.57
 11 -8 19 21.58 3.16
 -8 -11 19 19.03 4.67
 -11 -10 19 -2.39 4.73
 10 -11 19 -5.12 3.54
 11 10 -19 3.76 4.82
 11 -10 19 -2.56 3.33
 -10 -11 19 1.61 4.51
 1 -12 19 8.54 4.55
 12 -1 -19 0.07 4.04
 -1 -12 19 6.11 4.56
 12 1 -19 4.9 4.03
 12 -3 -19 1.74 3.99
 -12 -3 19 5.83 4.2
 3 -12 19 3.22 4.34
 -3 -12 19 -2.98 4.53
 12 3 -19 1.24 3.86
 5 -12 19 2.03 4.25
 -12 -5 19 -2.07 4.15
 12 -5 -19 4.02 4.12
 12 5 -19 1.53 3.89
 -5 -12 19 4.87 4.63
 -12 -7 19 3.83 4.27
 7 -12 19 3.77 4.1
 12 7 -19 7.59 4.14
 -7 -12 19 -0.05 4.75
 9 -12 19 26.42 4.01
 -12 -9 19 24.96 4.74
 -9 -12 19 21.87 4.87
 12 9 -19 29.19 4.56
 11 -12 19 11.68 3.64
 -12 -11 19 12.46 4.73
 -11 -12 19 11.25 4.86
 12 -11 19 9.89 3.4
 13 0 -19 -0.39 4.01
 0 -13 19 4.43 4.96
 2 -13 19 35.11 5.1
 13 -2 -19 27.56 4.42
 -13 -2 19 22.7 4.23
 13 2 -19 29.03 4.1
 -2 -13 19 27.49 5.06
 13 -4 -19 16.63 4.2
 -13 -4 19 8.5 4
 4 -13 19 7.24 4.53
 -4 -13 19 14.66 4.52
 13 4 -19 20.71 4.07
 -13 -6 19 19.7 4.39
 13 -6 -19 21.41 4.15
 13 6 -19 20.32 4.08
 -6 -13 19 15.49 4.54
 8 -13 19 5.41 4.14
 13 8 -19 2.74 4.52
 -8 -13 19 -2.55 4.42
 -13 -10 19 15.71 4.86
 10 -13 19 14.84 4.01
 -10 -13 19 2.32 4.58
 13 10 -19 8.8 4.62
 13 -10 19 9.36 3.02
 -13 -12 19 5.37 4.6
 12 -13 19 3.37 3.62
 -12 -13 19 2.43 4.47
 13 -12 19 -0.08 3.4
 1 -14 19 7.47 4.94
 14 1 -19 -1.97 4.02
 -1 -14 19 7.54 5.17
 -14 -3 19 2.45 4.01
 14 -3 -19 4.87 4.18
 3 -14 19 2 4.95
 14 3 -19 4.6 3.97
 -3 -14 19 -3.12 4.51
 5 -14 19 16.65 4.73
 -14 -5 19 5.25 4.29
 14 -5 -19 11.59 4.17
 14 5 -19 11.91 4.26
 -5 -14 19 8.09 5.16
 -14 -7 19 3.03 4.32
 7 -14 19 10.35 4.42
 -7 -14 19 9.81 4.43
 14 7 -19 4.17 4.19
 -14 -9 19 16.49 4.47
 -9 -14 19 14.26 4.48
 -14 -11 19 17.1 4.92
 11 -14 19 14.3 4.11
 -11 -14 19 13.12 4.58
 14 -11 19 12.51 3.02
 13 -14 19 7.93 3.83
 -14 -13 19 8.16 4.36
 14 -13 19 7.92 3.44
 -13 -14 19 13.62 5.01
 0 -15 19 88.27 6.33
 15 0 -19 71.21 5.33
 -15 -2 19 88.96 5.61
 15 -2 -19 88.03 5.58
 -2 -15 19 76.88 6.02
 15 2 -19 73.44 5.28
 15 -4 -19 45.15 4.62
 4 -15 19 49.22 5.27
 -15 -4 19 52.59 4.77
 -4 -15 19 39.8 5.29
 15 4 -19 39.3 4.4
 6 -15 19 31.17 4.86
 15 -6 -19 25.33 4.38
 -15 -6 19 33.48 4.5
 15 6 -19 26.01 4.51
 -6 -15 19 21.29 4.56
 8 -15 19 -4.63 4.55
 -15 -8 19 5.84 4.67
 15 8 -19 0.94 4.51
 -8 -15 19 0.51 4.56
 -15 -10 19 3.76 4.63
 10 -15 19 4.54 4.42
 -10 -15 19 7.43 4.8
 -15 -12 19 -0.35 4.39
 12 -15 19 1.7 4.04
 -12 -15 19 1.73 4.47
 -15 -14 19 3.23 4.82
 14 -15 19 11.43 3.85
 15 -14 19 1.78 3.61
 -14 -15 19 7.22 4.62
 16 -1 -19 6.83 4.24
 1 -16 19 7.07 5.21
 -1 -16 19 11.6 4.92
 16 1 -19 6.84 3.89
 -16 -3 19 27.59 4.31
 3 -16 19 33.22 5.31
 16 -3 -19 32.58 4.44
 -3 -16 19 35.34 5.4
 16 -5 -19 40.65 4.53
 5 -16 19 46.89 5.26
 -5 -16 19 36.15 4.92
 16 5 -19 35.09 4.41
 16 -7 -19 29.65 4.49
 -16 -7 19 39.42 4.6
 7 -16 19 40.16 5.28
 16 7 -19 35.35 4.53
 -7 -16 19 46.64 5.31
 9 -16 19 68.03 5.73
 -16 -9 19 72.15 5.5
 16 9 -19 84.11 5.75
 -9 -16 19 81.24 6.31
 11 -16 19 55.72 5.09
 -11 -16 19 62.14 5.91
 13 -16 19 20.83 4.27
 -16 -13 19 21.36 5.37
 -13 -16 19 14.25 4.81
 16 -13 19 14.7 3.21
 15 -16 19 12.17 3.97
 16 -15 19 5.3 3.59
 -15 -16 19 1.79 4.62
 17 0 -19 7.77 3.84
 0 -17 19 14.14 5.53
 2 -17 19 17.3 5.45
 -2 -17 19 11.27 5.64
 -17 -4 19 4.68 4.23
 17 -4 -19 0.11 4.02
 4 -17 19 3.35 5.4
 17 4 -19 2.7 4.08
 -4 -17 19 -3.5 4.89
 6 -17 19 10.05 5.1
 -17 -6 19 -7.56 4.39
 17 -6 -19 -0.87 4.01
 17 6 -19 3.58 4.05
 -6 -17 19 3.39 5.15
 -17 -8 19 7.89 4.74
 8 -17 19 10.99 5.05
 -8 -17 19 15.67 5.27
 -17 -10 19 1.64 4.6
 10 -17 19 0.73 4.73
 -10 -17 19 0.3 5.17
 -17 -12 19 1.25 5.19
 12 -17 19 -3.92 4.45
 -12 -17 19 9.26 5.25
 -17 -14 19 6.52 4.77
 14 -17 19 6.71 4.29
 -14 -17 19 0.26 4.78
 16 -17 19 1.91 3.91
 -17 -16 19 7.52 5.37
 -16 -17 19 8.67 4.71
 17 -16 19 -0.24 3.55
 18 -1 -19 1.64 4.24
 1 -18 19 6.32 5.26
 -1 -18 19 5.31 5.21
 18 1 -19 -2.47 3.84
 18 -3 -19 5.54 4.18
 -18 -3 19 10.04 4.25
 3 -18 19 7.35 5.13
 -3 -18 19 9.61 5.87
 18 3 -19 -1.3 3.98
 5 -18 19 3.1 5.36
 18 -5 -19 8.2 4.26
 -18 -5 19 9.67 4.36
 -5 -18 19 15.64 4.81
 18 5 -19 10.03 4.09
 -18 -7 19 20.45 4.76
 18 -7 -19 15.45 4.26
 -7 -18 19 10.22 5.32
 18 7 -19 18.59 4.5
 18 -9 -19 21.77 4.26
 9 -18 19 11.26 5.05
 -18 -9 19 16.63 4.83
 18 9 -19 15.93 4.66
 -9 -18 19 14.42 5.62
 11 -18 19 9.14 4.68
 -18 -11 19 17.45 5.2
 -11 -18 19 6.83 5.25
 -18 -13 19 -5.6 4.59
 13 -18 19 -0.36 4.49
 -13 -18 19 -6.89 5.08
 -18 -15 19 7.59 4.68
 15 -18 19 -0.74 4.28
 -15 -18 19 10.68 4.77
 17 -18 19 8.97 3.99
 -18 -17 19 -1.06 5.2
 18 -17 19 3.4 4.75
 -17 -18 19 11.67 4.85
 19 0 -19 -2.88 3.95
 0 -19 19 2.57 5.63
 2 -19 19 0.73 5.56
 19 -2 -19 -0.82 4.22
 -2 -19 19 -6.01 5.2
 19 2 -19 2.38 3.99
 -19 -4 19 3.3 4.35
 19 -4 -19 2.67 4.05
 4 -19 19 5.53 5.33
 -4 -19 19 5.33 5.9
 19 4 -19 2.81 3.99
 19 -6 -19 -2.66 4.2
 -19 -6 19 -0.63 4.37
 6 -19 19 6.94 5.44
 -6 -19 19 -9.24 4.75
 19 6 -19 2.76 4.2
 19 -8 -19 -5.71 4.31
 8 -19 19 -1.89 5.05
 19 8 -19 -8.28 4.35
 -8 -19 19 6.15 4.96
 -19 -10 19 -0.81 4.7
 10 -19 19 7.85 4.97
 19 -10 -19 8.04 4.22
 -10 -19 19 -8.94 5.21
 -19 -12 19 1.49 4.79
 12 -19 19 4.2 4.79
 -12 -19 19 -1.86 5.23
 14 -19 19 7.12 4.58
 -19 -14 19 -2.22 4.99
 -14 -19 19 0.1 4.84
 16 -19 19 -0.75 4.25
 -19 -16 19 -0.87 4.68
 -16 -19 19 6.95 4.68
 18 -19 19 5.76 4.01
 -19 -18 19 0.16 5.02
 -18 -19 19 -2.73 5.21
 1 -20 19 1.78 5.8
 20 -1 -19 0.26 4.08
 -1 -20 19 4.58 5.71
 20 1 -19 2.05 4.15
 20 -3 -19 10.28 4.45
 3 -20 19 10.35 5.67
 -3 -20 19 16.72 5.4
 20 3 -19 14.92 4.12
 -20 -5 19 15.68 4.4
 20 -5 -19 14.24 4.37
 5 -20 19 6.27 5.36
 -5 -20 19 15.66 5.88
 20 5 -19 13 4.23
 20 -7 -19 15.06 4.39
 -20 -7 19 18.17 4.81
 -7 -20 19 5.27 5.06
 20 7 -19 15.73 4.4
 20 -9 -19 12.66 4.44
 -20 -9 19 3.54 4.78
 9 -20 19 13.4 5.22
 -9 -20 19 8.54 4.82
 -20 -11 19 15 4.83
 11 -20 19 13.86 5.17
 20 -11 -19 12.38 4.46
 -11 -20 19 12.68 4.88
 -20 -13 19 -3.47 5.37
 13 -20 19 2.91 4.71
 -13 -20 19 6.59 4.5
 15 -20 19 7.61 4.5
 -20 -15 19 9.29 5.3
 -15 -20 19 2.98 4.53
 -20 -17 19 3.24 4.65
 17 -20 19 7.39 4.22
 -17 -20 19 7.87 5.31
 -20 -19 19 5.3 4.66
 -19 -20 19 0.95 4.81
 21 0 -19 9.77 4.17
 0 -21 19 13.44 5.78
 21 -2 -19 -4.89 4.08
 2 -21 19 -0.51 5.82
 21 2 -19 -2.09 4.03
 -2 -21 19 5.03 5.35
 21 -4 -19 -1.83 4.28
 -21 -4 19 2.43 4.47
 4 -21 19 4.24 5.4
 21 4 -19 2.96 4.14
 -4 -21 19 -0.82 5.54
 -21 -6 19 6.15 4.53
 6 -21 19 5.48 5.74
 21 -6 -19 -1.49 4.18
 21 6 -19 5.02 4.27
 -6 -21 19 7.54 5.49
 -21 -8 19 -2.74 4.75
 8 -21 19 -0.59 5.17
 21 -8 -19 0.99 4.22
 -8 -21 19 2.51 5.83
 21 8 -19 0.33 4.41
 10 -21 19 -6.19 5.02
 -21 -10 19 -3.37 5.1
 21 -10 -19 7.8 4.53
 -10 -21 19 7.45 5.25
 12 -21 19 -1.8 4.93
 -21 -12 19 -1.34 5.2
 21 -12 -19 -2.34 4.44
 -12 -21 19 0.04 5
 14 -21 19 1.66 4.62
 -21 -14 19 6.38 5.24
 -14 -21 19 -0.47 5.24
 -21 -16 19 -4.81 5.23
 16 -21 19 14.36 4.55
 -16 -21 19 3.93 5.27
 18 -21 19 7.55 4.19
 -21 -18 19 3.71 5.01
 -18 -21 19 -0.08 4.76
 -21 -20 19 -0.87 5.01
 -20 -21 19 4.62 4.8
 1 -22 19 -3.65 5.74
 22 -1 -19 -0.11 4.08
 22 1 -19 -2.61 4.11
 -1 -22 19 3.16 5.39
 22 -3 -19 3.36 4.4
 3 -22 19 0.03 5.48
 -3 -22 19 -4.43 5.32
 22 3 -19 -0.28 4.05
 5 -22 19 11.72 5.85
 22 -5 -19 4.58 4.28
 -22 -5 19 12.15 4.58
 22 5 -19 7.25 4.26
 -5 -22 19 6.22 5.96
 7 -22 19 8.92 5.36
 -22 -7 19 5.19 4.93
 22 -7 -19 3.92 4.39
 22 7 -19 5.98 4.29
 -7 -22 19 1.03 5.31
 9 -22 19 0.13 5.36
 -22 -9 19 7.74 4.99
 22 -9 -19 2.96 4.31
 -9 -22 19 -1.01 5.12
 11 -22 19 9.26 5.14
 22 -11 -19 1.31 4.54
 -22 -11 19 12.78 5.13
 -11 -22 19 -0.81 5.14
 13 -22 19 -7.56 4.83
 -22 -13 19 -0.96 5.14
 22 -13 -19 -2.22 4.51
 -13 -22 19 -1.16 5.06
 -22 -15 19 1.14 5.19
 -15 -22 19 2.92 5
 17 -22 19 8.58 4.52
 -22 -17 19 0.81 5.16
 -17 -22 19 8.99 4.48
 -22 -19 19 -2.22 5.23
 -19 -22 19 -6.06 4.97
 -22 -21 19 -2.38 4.66
 -21 -22 19 -5.03 4.71
 23 0 -19 18.91 4.35
 0 -23 19 14.6 5.53
 2 -23 19 12.66 5.6
 23 2 -19 9.61 4.2
 -2 -23 19 10.89 5.53
 4 -23 19 1.03 5.96
 23 -4 -19 7.12 4.58
 23 4 -19 6.46 4.11
 -4 -23 19 10.33 6.09
 -23 -6 19 -2.7 4.59
 6 -23 19 -8.17 5.45
 23 -6 -19 2.96 4.42
 -6 -23 19 -10.29 5.05
 23 -8 -19 2.6 4.29
 8 -23 19 -5.25 5.3
 -23 -8 19 6.62 5.08
 -8 -23 19 -1.94 5.65
 -23 -10 19 -5.57 4.79
 10 -23 19 -8.42 5.15
 23 -10 -19 -1.02 4.38
 -23 -10 -19 2.64 3.69
 -10 -23 19 5.26 5.22
 23 -12 -19 11.4 4.67
 12 -23 19 7.31 5.13
 -23 -12 19 6.08 5.37
 -12 -23 19 7.48 4.76
 14 -23 19 5.71 4.9
 -23 -14 19 -2.5 5.02
 23 -14 -19 -3.16 4.45
 -14 -23 19 15.54 4.8
 16 -23 19 14.21 4.82
 -23 -16 19 11.85 5.37
 -16 -23 19 13.6 5.07
 -23 -18 19 0.8 4.95
 18 -23 19 10.47 4.97
 -18 -23 19 -0.17 5.12
 -23 -20 19 0.01 4.74
 -20 -23 19 -2.6 4.46
 1 -24 19 6.23 5.89
 24 -1 -19 5.76 4.25
 24 1 -19 9.55 4.13
 -1 -24 19 9.9 6.03
 24 -3 -19 6.83 4.27
 3 -24 19 -7.06 6.02
 -3 -24 19 3.8 6.05
 24 3 -19 -3.3 4.26
 24 -5 -19 7.86 4.54
 5 -24 19 3.74 5.42
 24 5 -19 6.53 4.31
 -5 -24 19 7.46 5.31
 7 -24 19 1.96 5.53
 24 -7 -19 1.07 4.54
 -24 -7 19 1.62 4.61
 24 7 -19 2.84 4.24
 -7 -24 19 12.77 5.8
 9 -24 19 -6.89 5.47
 24 -9 -19 3.51 4.52
 -24 -9 19 0.59 4.92
 -9 -24 19 1.3 4.83
 11 -24 19 4.38 5.09
 24 -11 -19 4.84 4.47
 -24 -11 19 -7.66 5.08
 -24 -11 -19 1.79 3.81
 -11 -24 19 -0.46 4.99
 24 -13 -19 6.96 4.67
 -24 -13 19 5.18 5.03
 13 -24 19 4.92 5.02
 -13 -24 19 -1.12 4.97
 -24 -13 -19 -3.72 3.98
 -24 -15 19 -3.84 5.11
 24 -15 -19 1.79 4.66
 15 -24 19 6.44 4.99
 -15 -24 19 7.46 4.94
 -24 -17 19 11.39 5.57
 17 -24 19 7.42 4.68
 -17 -24 19 0.35 4.45
 25 0 -19 42.33 4.75
 0 -25 19 52.05 6.44
 2 -25 19 36.23 6.15
 25 -2 -19 32.8 4.65
 -2 -25 19 39.6 6.01
 25 2 -19 39.87 4.51
 25 -4 -19 20.77 4.48
 4 -25 19 12.75 5.44
 25 4 -19 13.29 4.17
 -4 -25 19 16.66 5.19
 25 -6 -19 4.26 4.65
 6 -25 19 5.99 5.58
 -25 -6 19 4.34 4.87
 -6 -25 19 12.08 5.74
 25 6 -19 12.67 4.26
 8 -25 19 -2.49 5.44
 -25 -8 19 9.04 4.77
 25 -8 -19 -1.25 4.55
 -8 -25 19 4.19 5.01
 -25 -10 19 6.36 5.05
 25 -10 -19 8.66 4.53
 -10 -25 19 9.3 5.4
 -25 -12 19 -0.73 5
 12 -25 19 1.33 5.12
 25 -12 -19 -1.33 4.55
 -12 -25 19 -4.43 5.36
 -25 -12 -19 2.34 3.92
 -25 -14 19 11.69 5.16
 14 -25 19 13.63 4.95
 -25 -14 -19 11.51 4.17
 -25 -16 19 0.46 4.96
 25 -16 -19 0.85 4.68
 16 -25 19 11.92 4.75
 -16 -25 19 10.74 5.09
 -25 -16 -19 7.23 4.23
 1 -26 19 8.4 5.47
 -1 -26 19 -4.26 5.22
 26 1 -19 5.48 4.01
 26 -3 -19 -3.45 4.29
 3 -26 19 -2.99 5.88
 -3 -26 19 2.79 5.4
 26 3 -19 2.18 4.17
 5 -26 19 -8.32 5.48
 26 -5 -19 -3.62 4.48
 26 5 -19 4.65 4.2
 -5 -26 19 -4.62 5.78
 -26 -7 19 -0.05 4.87
 26 -7 -19 2.28 4.74
 -7 -26 19 4.05 4.85
 9 -26 19 -3.76 5.29
 26 -9 -19 1.26 4.58
 -9 -26 19 5.36 5.56
 11 -26 19 -5.11 5.13
 -26 -11 19 -6.17 5.25
 26 -11 -19 4.45 4.62
 -11 -26 19 7.58 4.82
 26 -13 -19 1.32 4.49
 -26 -13 19 1.48 5.1
 13 -26 19 -4.35 5.08
 -13 -26 19 0.79 4.43
 -26 -13 -19 3.08 4.09
 15 -26 19 3.72 4.87
 -26 -15 19 3.88 5.12
 26 -15 -19 -0.44 4.82
 -15 -26 19 1.17 4.35
 -26 -15 -19 5.56 7.14
 27 0 -19 1.89 4.06
 0 -27 19 9.48 5.91
 2 -27 19 3.24 5.62
 27 -2 -19 -1.49 4.19
 -2 -27 19 -1.09 5.69
 27 2 -19 2.68 4.21
 4 -27 19 -5.48 5.22
 27 -4 -19 1.39 4.28
 27 4 -19 5.71 4.16
 -4 -27 19 -3.09 5.41
 27 -6 -19 6.3 4.54
 6 -27 19 0.54 5.57
 -6 -27 19 5.95 4.95
 8 -27 19 -5.73 5.42
 -8 -27 19 -5.46 5.39
 10 -27 19 -8.3 5.25
 27 -10 -19 -3.03 4.65
 -27 -10 19 1.85 4.91
 -10 -27 19 -1.49 4.56
 27 -12 -19 4.7 4.61
 -27 -12 19 8.35 4.99
 12 -27 19 1.16 5.05
 -12 -27 19 3.17 4.47
 14 -27 19 6.78 4.93
 -27 -14 19 9.08 5.15
 27 -14 -19 7.06 4.57
 -14 -27 19 8.21 4.73
 28 -1 -19 -2.89 4.24
 1 -28 19 -0.33 5.24
 -1 -28 19 5.99 5.04
 28 1 -19 4.75 4.16
 28 -3 -19 4 4.33
 3 -28 19 0.99 5.77
 -3 -28 19 5.11 4.98
 28 3 -19 2.57 3.96
 5 -28 19 -1.21 5.22
 28 -5 -19 0.96 4.39
 -5 -28 19 -3.65 5.45
 7 -28 19 -5.21 5.35
 28 -7 -19 -5.54 4.5
 -7 -28 19 -1.32 5.11
 9 -28 19 9.53 5.35
 28 -9 -19 8.05 4.72
 -9 -28 19 0.49 4.83
 -28 -11 19 -1.29 4.89
 28 -11 -19 7.78 4.63
 11 -28 19 -0.94 5.04
 -11 -28 19 4.4 4.51
 0 -29 19 0.99 5.41
 29 0 -19 11.15 4.33
 2 -29 19 23.05 5.23
 29 2 -19 18.88 4.15
 -2 -29 19 19.77 5.54
 4 -29 19 17.18 5.47
 29 -4 -19 16.26 4.3
 -4 -29 19 6.11 5.26
 29 -6 -19 4.97 4.39
 6 -29 19 4.79 5.18
 -6 -29 19 10.34 4.65
 8 -29 19 -6.81 5.15
 29 -8 -19 -2.55 4.74
 -8 -29 19 -2.8 5.24
 30 -1 -19 2.92 4.09
 1 -30 19 15.56 5.53
 30 1 -19 11.4 4.07
 -1 -30 19 11.92 5.17
 30 -3 -19 6.77 5.5
 3 -30 19 6.86 5.32
 -3 -30 19 9.67 5.06
 30 3 -19 -1.29 3.92
 5 -30 19 14.42 5.24
 -5 -30 19 8.89 5.36
 0 0 -20 20.08 3.7
 1 -1 -20 -1.55 3.99
 1 1 -20 2.99 3.92
 1 3 -20 7.61 4.08
 3 -1 -20 5.99 4.28
 1 -3 20 3.25 3.98
 3 1 -20 3.3 3.8
 -1 -3 20 2.94 3.87
 -3 -3 20 -1.26 4.54
 3 -3 20 4.02 3.72
 3 3 -20 0.13 3.61
 4 0 -20 165.66 8.72
 0 -4 20 171.23 8.62
 5 -1 -20 12.95 4.11
 1 -5 20 9.4 4.14
 1 5 -20 5.03 3.87
 -5 1 -20 4.47 3.32
 -1 -5 20 2.67 4.15
 3 -5 20 2.1 3.88
 -5 -3 20 -3.94 4.4
 3 5 -20 5.46 4.18
 5 3 -20 0.95 4.18
 5 -3 20 1.89 3.5
 -3 -5 20 8.04 4.28
 -5 -5 20 6.33 4.55
 5 5 -20 -1.52 4.53
 5 -5 20 0.29 3.53
 6 0 -20 487.44 19.29
 4 6 -20 344.06 14.44
 -6 -4 20 354.55 14.53
 -4 -6 20 338.9 14.55
 6 4 -20 354.58 14.41
 6 -6 20 347.39 13.68
 6 6 -20 329.12 14.14
 -7 1 -20 5.1 2.98
 1 7 -20 0.41 4.05
 7 -1 -20 8.34 4.59
 -1 -7 20 8.37 4.22
 -7 3 -20 16.67 3.06
 3 7 -20 9.84 4.21
 7 -3 -20 18.34 4.35
 -7 -3 20 20.39 4.35
 -3 -7 20 7.21 4.73
 7 3 -20 26.56 4.04
 5 7 -20 -6.29 4.46
 5 -7 20 -5.77 3.88
 -7 -5 20 -4.44 4.33
 7 -5 20 4.59 3.22
 7 5 -20 -1.75 3.81
 7 -7 20 -2.99 3.55
 -7 -7 20 -9.39 4.05
 7 7 -20 -3.54 4.41
 -8 -2 20 247.95 11.31
 -8 2 -20 262.43 10.42
 2 -8 20 263.25 11.39
 8 -2 -20 255.25 11.38
 2 8 -20 236.03 11.27
 -2 -8 20 252.58 11.37
 8 2 -20 253.87 11.29
 4 8 -20 190.35 9.65
 -8 4 -20 195.26 8.64
 -8 -4 20 201.47 9.76
 4 -8 20 198.95 9.43
 8 4 -20 195.49 9.52
 -4 -8 20 203.15 9.76
 -8 -6 20 24.9 4.87
 6 -8 20 29.09 3.94
 6 8 -20 21.58 4.35
 -6 -8 20 20.16 4.87
 8 -6 20 20.01 3.32
 8 8 -20 349.76 15.34
 8 -8 20 392.18 14.84
 -8 -8 20 371.54 15.44
 1 -9 20 5.44 4.25
 9 -1 -20 7.61 4.03
 1 9 -20 2.63 4.31
 -9 1 -20 2.77 2.74
 -9 -1 -20 4.1 2.56
 -1 -9 20 4.33 4.44
 9 1 -20 4.75 3.76
 9 -3 -20 3.12 4.03
 3 -9 20 -5.48 4.15
 -9 -3 20 4.1 4.29
 3 9 -20 2.21 4.26
 -9 3 -20 2.78 2.86
 9 3 -20 2.61 3.64
 -3 -9 20 -0.33 4.36
 5 -9 20 2.04 3.95
 -9 -5 20 4.38 4.32
 5 9 -20 5.66 4.38
 9 5 -20 0.57 4.15
 -5 -9 20 5.35 4.03
 9 -5 20 5.01 3.01
 7 -9 20 4.96 3.77
 7 9 -20 10.19 5.03
 -7 -9 20 11.27 4.62
 9 -7 20 7.71 3.15
 -9 -9 20 -0.11 4.16
 9 9 -20 2.38 4.62
 -10 0 -20 16.82 2.65
 0 -10 20 20.74 4.59
 10 0 -20 15.03 4.07
 10 -2 -20 100.59 7.13
 -10 -2 20 99.05 7.1
 2 -10 20 98.58 7.44
 -10 2 -20 108.61 5.28
 10 2 -20 104.23 7.28
 -2 -10 20 104.47 7.49
 4 10 -20 20.53 4.52
 -10 -4 20 19.85 4.59
 10 -4 -20 19.15 4.23
 4 -10 20 13.23 4.31
 -4 -10 20 20.37 4.67
 10 4 -20 16.62 4.25
 6 10 -20 66.07 5.12
 -10 -6 20 60.29 4.84
 -6 -10 20 68.93 5.39
 10 6 -20 67.93 4.9
 8 -10 20 27.9 3.99
 -10 -8 20 33.82 5.15
 10 -8 20 29.38 3.41
 -8 -10 20 25.49 4.27
 10 10 -20 19.44 4.73
 10 -10 20 21.14 3.6
 -10 -10 20 24.45 4.63
 1 -11 20 -7.39 4.24
 11 -1 -20 1.94 4.33
 11 1 -20 -4.93 3.91
 -11 -1 -20 0.63 2.39
 -11 -3 20 17.23 4.34
 3 -11 20 9.62 4.37
 11 -3 -20 4.68 3.95
 -3 -11 20 0.86 4.29
 11 3 -20 11.32 4.19
 5 -11 20 -6.46 3.96
 -11 -5 20 -3.52 3.96
 11 -5 -20 -0.62 3.85
 -5 -11 20 2.52 4.44
 11 5 -20 -4.78 4
 7 -11 20 10.13 3.94
 11 7 -20 0.68 4.38
 -7 -11 20 8.55 4.3
 11 -7 20 11.93 2.79
 9 -11 20 4.64 3.64
 -11 -9 20 3.36 4.24
 11 -9 20 8.24 3.18
 11 9 -20 13.41 4.41
 -9 -11 20 15.5 4.48
 -11 -11 20 -7.16 4.58
 11 -11 20 6.37 3.48
 12 0 -20 327.18 13.1
 0 -12 20 289.45 13.39
 12 -2 -20 90.53 7.26
 -12 -2 20 105.31 7.24
 2 -12 20 103.37 7.33
 -2 -12 20 95.74 6.07
 12 2 -20 98.53 6.74
 -12 -4 20 37.01 4.37
 4 -12 20 34.86 4.67
 12 -4 -20 39.94 4.5
 12 4 -20 50.74 4.29
 -4 -12 20 51.02 5.17
 -12 -6 20 6.14 4.19
 6 -12 20 -2.32 4.2
 -6 -12 20 4.29 4.53
 12 6 -20 -0.06 3.96
 8 -12 20 28.28 4.24
 -12 -8 20 31.58 4.77
 12 8 -20 33.78 4.52
 -8 -12 20 28.81 4.57
 10 -12 20 4.38 3.78
 -12 -10 20 -2.39 4.53
 -10 -12 20 -2.53 4.45
 12 -10 20 4.19 3.11
 12 10 -20 -5.71 4.58
 12 -12 20 -2.69 3.56
 -12 -12 20 -2.05 4.39
 1 -13 20 -4.28 4.56
 13 -1 -20 -3.74 3.88
 -1 -13 20 4.15 4.48
 13 1 -20 4.08 3.91
 3 -13 20 16.75 4.53
 -13 -3 20 12.36 3.99
 13 -3 -20 13.28 4.04
 -3 -13 20 8.28 4.4
 5 -13 20 32.61 4.58
 13 -5 -20 28.44 4.53
 -13 -5 20 35.16 4.6
 -5 -13 20 33.69 5.26
 13 5 -20 27.99 4.33
 7 -13 20 71.77 5.1
 -7 -13 20 65.25 5.4
 13 7 -20 69.22 5.35
 9 -13 20 58.67 4.65
 -13 -9 20 50.82 4.87
 13 9 -20 42.97 5.41
 13 -9 20 59.28 3.62
 -13 -11 20 13.19 4.71
 11 -13 20 14.47 3.84
 13 -11 20 14.61 3.26
 -13 -13 20 1.15 4.32
 13 -13 20 2.85 3.58
 0 -14 20 223.72 10.62
 14 0 -20 210.56 10.37
 -14 -2 20 123.06 7.51
 2 -14 20 110.55 8.03
 14 -2 -20 122.51 7.61
 -2 -14 20 110.65 7.95
 14 2 -20 108.62 7.34
 4 -14 20 64.64 5.44
 14 -4 -20 62.83 5.02
 -14 -4 20 80.46 5.37
 14 4 -20 73.84 5.27
 -4 -14 20 69.03 5.68
 -14 -6 20 7.2 4.35
 6 -14 20 -7.02 4.55
 14 -6 -20 3.11 3.96
 14 6 -20 4.95 3.95
 -6 -14 20 1.06 4.57
 8 -14 20 -2.6 4.36
 -14 -8 20 0.73 4.54
 14 8 -20 8.72 4.28
 -8 -14 20 1.78 4.84
 -14 -10 20 10.47 4.65
 10 -14 20 20.86 4.18
 14 10 -20 14.65 4.9
 14 -10 20 17.24 2.92
 -10 -14 20 11.49 5.19
 -14 -12 20 16.98 4.44
 12 -14 20 12.59 4.02
 14 -12 20 23.41 3.34
 -14 -14 20 62.09 5.5
 14 -14 20 51.09 4.27
 15 -1 -20 6.61 4.08
 1 -15 20 8.99 4.82
 15 1 -20 5.81 3.99
 -1 -15 20 3.66 4.75
 -15 -3 20 18.68 4.31
 15 -3 -20 16.4 4.22
 3 -15 20 19.64 4.77
 -3 -15 20 18.55 4.77
 15 3 -20 18.96 4.09
 15 -5 -20 17.36 4.3
 5 -15 20 22.14 5
 -15 -5 20 28.86 4.75
 15 5 -20 21.19 4.3
 -5 -15 20 10.7 5.04
 -15 -7 20 13.09 4.28
 7 -15 20 20.21 4.63
 15 -7 -20 18.85 4.16
 -7 -15 20 15.73 4.73
 9 -15 20 20.7 4.41
 -15 -9 20 11.18 4.46
 -9 -15 20 1.15 4.62
 15 9 -20 9.2 4.71
 11 -15 20 4.78 4.09
 -11 -15 20 -0.6 4.54
 -15 -13 20 -4.11 4.94
 13 -15 20 0.79 3.86
 15 -13 20 3.63 3.3
 -13 -15 20 0.68 4.58
 -15 -15 20 -2.26 5.06
 15 -15 20 5.22 3.69
 16 0 -20 1000 37.19
 0 -16 20 961.09 37.53
 2 -16 20 740.18 29.69
 16 -2 -20 797.86 29.43
 -2 -16 20 756.38 29.66
 16 2 -20 769.36 29.37
 16 -4 -20 397.76 15.71
 -16 -4 20 396.31 15.71
 4 -16 20 375.69 15.93
 -4 -16 20 377.41 16.15
 16 4 -20 366.33 15.51
 6 -16 20 110.67 8.3
 16 -6 -20 126.11 7.45
 -16 -6 20 121.18 7.82
 16 6 -20 131.96 7.43
 -6 -16 20 119.07 8.48
 8 -16 20 30.46 4.95
 16 -8 -20 34.18 4.32
 -8 -16 20 28.46 4.76
 -16 -10 20 5.36 4.41
 10 -16 20 2.48 4.48
 -10 -16 20 3.22 4.51
 16 10 -20 8.07 4.98
 12 -16 20 12.97 4.32
 -16 -12 20 7.7 4.75
 -12 -16 20 0.44 4.64
 -16 -14 20 38.8 4.78
 -14 -16 20 30.81 4.81
 16 -16 20 74.08 5.81
 -16 -16 20 77.29 5.98
 1 -17 20 16.12 5.59
 -1 -17 20 12.88 5.55
 -17 -3 20 10.21 4.48
 3 -17 20 8.89 5.34
 17 -3 -20 2.83 4.12
 -3 -17 20 2.49 5.04
 17 3 -20 9.15 4.19
 5 -17 20 -1.39 4.9
 -17 -5 20 9.77 4.46
 17 -5 -20 7.29 4.16
 17 5 -20 11.73 4.1
 17 -7 -20 24.72 4.49
 -17 -7 20 18.65 4.4
 7 -17 20 12.4 5.03
 17 7 -20 17.05 4.3
 9 -17 20 12.04 4.95
 -17 -9 20 12.9 4.79
 -9 -17 20 11.17 5.07
 17 9 -20 17.62 4.9
 11 -17 20 15.13 4.57
 -17 -11 20 5.75 4.8
 -11 -17 20 10.77 4.8
 13 -17 20 9.51 4.3
 -17 -13 20 1.65 4.94
 -13 -17 20 -1.01 4.75
 -17 -15 20 6.81 5.01
 -15 -17 20 7.41 4.47
 -17 -17 20 1.03 4.91
 17 -17 20 -0.87 3.73
 18 0 -20 139.69 7.91
 0 -18 20 130.69 9.34
 2 -18 20 93.63 6.76
 18 -2 -20 105.17 7.38
 -2 -18 20 111.54 7.03
 18 2 -20 107.47 6.86
 18 -4 -20 40.55 4.72
 4 -18 20 48.94 5.97
 18 4 -20 47.13 4.73
 -4 -18 20 40.5 5.74
 6 -18 20 0.89 5.1
 18 -6 -20 2.86 4.16
 -18 -6 20 2.95 4.38
 18 6 -20 -0.25 4.18
 -6 -18 20 1.62 4.9
 8 -18 20 3.49 5.08
 18 -8 -20 2.63 4.35
 -18 -8 20 -2.44 4.54
 18 8 -20 1.11 4.5
 -8 -18 20 4.66 4.66
 -18 -10 20 11.9 5.27
 10 -18 20 17.47 4.9
 -10 -18 20 19.18 5.23
 12 -18 20 50.2 5.09
 -18 -12 20 49.09 5.44
 -12 -18 20 33.73 5.32
 -18 -14 20 77.65 6.16
 14 -18 20 69.63 5.32
 -14 -18 20 62.26 5.63
 -18 -16 20 85.42 6.25
 16 -18 20 79.38 5.32
 -18 -18 20 76.38 6.34
 19 -1 -20 9.78 4.02
 1 -19 20 7.49 5.51
 19 1 -20 2.53 4.06
 3 -19 20 5.7 5.25
 19 -3 -20 12.92 4.31
 -3 -19 20 5.1 5.33
 19 3 -20 3.5 4.09
 19 -5 -20 4.96 4.2
 -19 -5 20 9.38 4.54
 5 -19 20 4.27 5.63
 -5 -19 20 2.95 5.67
 19 5 -20 3.44 4.09
 19 -7 -20 8.37 4.21
 7 -19 20 1.13 5.08
 -19 -7 20 7.48 4.75
 -7 -19 20 5.07 5.13
 19 7 -20 6.62 4.43
 9 -19 20 7.33 5.04
 19 -9 -20 5.77 4.33
 -19 -9 20 11.87 4.79
 19 9 -20 11.94 4.7
 -9 -19 20 7.98 4.72
 11 -19 20 9.88 4.8
 -19 -11 20 13.75 5
 -11 -19 20 8.21 4.95
 -19 -13 20 5.65 4.95
 13 -19 20 -5.73 4.54
 -13 -19 20 1.61 4.62
 -19 -15 20 -3.44 4.95
 15 -19 20 6.42 4.36
 -15 -19 20 8.5 4.63
 -19 -17 20 5.1 5.09
 17 -19 20 -0.02 4
 -17 -19 20 -8.06 4.86
 -19 -19 20 1.93 5.03
 20 0 -20 285.38 12.1
 0 -20 20 263.02 13.01
 2 -20 20 174.9 10.65
 20 2 -20 191.25 9.31
 20 -4 -20 91.88 7.4
 -20 -4 20 98.07 6.15
 20 4 -20 97.33 6.83
 -4 -20 20 91.03 6.69
 6 -20 20 21.7 5.68
 -20 -6 20 19.76 4.59
 20 -6 -20 18.17 4.4
 20 6 -20 19.9 4.44
 -6 -20 20 30.23 5.75
 -20 -8 20 -4.26 4.78
 20 -8 -20 -4.04 4.24
 8 -20 20 -1.35 5.38
 20 8 -20 0.82 4.43
 -8 -20 20 -2.02 5.29
 -20 -10 20 10.41 4.83
 10 -20 20 1.03 4.98
 20 -10 -20 -3.07 4.38
 -10 -20 20 1.82 4.82
 -20 -12 20 13.56 4.94
 -12 -20 20 7.02 4.64
 14 -20 20 19.46 4.81
 -20 -14 20 20.86 5.12
 -14 -20 20 22.49 4.73
 16 -20 20 42.78 4.73
 -20 -16 20 29.65 5.24
 -16 -20 20 39.62 5.28
 18 -20 20 43.51 4.91
 -20 -18 20 35.73 5.18
 -18 -20 20 39 5.59
 -20 -20 20 4.87 4.6
 21 -1 -20 -1.96 4
 1 -21 20 0.97 5.88
 -1 -21 20 2.3 5.72
 21 1 -20 -6.56 4.17
 3 -21 20 4.6 5.48
 21 -3 -20 2.73 4.46
 -3 -21 20 1.93 5.33
 21 3 -20 6.07 4.11
 5 -21 20 7.04 5.53
 21 -5 -20 6.41 4.42
 -21 -5 20 -2.09 4.46
 21 5 -20 -2.33 4.25
 -5 -21 20 6.44 5.7
 21 -7 -20 11.27 4.43
 7 -21 20 4.04 5.4
 -21 -7 20 10.46 4.75
 21 7 -20 16.25 4.52
 -7 -21 20 4.87 5.18
 9 -21 20 8.32 5.31
 21 -9 -20 6.64 4.32
 -21 -9 20 5.37 4.94
 -9 -21 20 13.11 5.73
 -21 -11 20 17.18 5.08
 21 -11 -20 15.88 4.67
 11 -21 20 11.24 5.02
 13 -21 20 7.92 4.95
 -21 -13 20 4.44 5.06
 -13 -21 20 12.52 5.42
 -21 -15 20 5.23 5.08
 15 -21 20 5.26 4.69
 -15 -21 20 8.67 5.32
 17 -21 20 2.31 4.25
 -21 -17 20 4.23 5.1
 -17 -21 20 4.37 5.11
 -21 -19 20 5.9 4.69
 -19 -21 20 1.67 4.52
 -21 -21 20 -3.58 5.04
 0 -22 20 105.26 7.38
 22 0 -20 98.84 7.28
 22 -2 -20 83.79 7.06
 2 -22 20 79.46 6.72
 22 2 -20 89.09 5.65
 -2 -22 20 75.54 6.73
 22 -4 -20 46.91 4.96
 4 -22 20 42.52 5.87
 -4 -22 20 50.24 5.9
 22 4 -20 41.72 4.67
 6 -22 20 25.22 5.75
 -22 -6 20 25.72 4.91
 22 -6 -20 12.2 4.4
 22 6 -20 16.35 4.4
 -6 -22 20 14.09 6.03
 -22 -8 20 -7.27 4.8
 22 -8 -20 11.79 4.49
 8 -22 20 0.64 5.46
 22 8 -20 8.03 4.44
 -8 -22 20 3.75 4.93
 22 -10 -20 -3.93 4.29
 -22 -10 20 5.79 5.28
 10 -22 20 7.87 5.15
 -10 -22 20 2.37 4.86
 12 -22 20 4.48 5.01
 22 -12 -20 -1.4 4.57
 -22 -12 20 2.34 5.09
 -12 -22 20 0.65 5.06
 -22 -14 20 2.37 5.36
 14 -22 20 8.25 4.89
 -14 -22 20 10.95 5.05
 16 -22 20 15.49 4.68
 -22 -16 20 15.88 5.23
 -16 -22 20 8.31 4.72
 -22 -18 20 24.17 5.66
 18 -22 20 18.36 4.59
 -22 -20 20 14.25 5.41
 -20 -22 20 -4.63 5.11
 23 -1 -20 4.35 4.24
 1 -23 20 5.18 5.44
 23 1 -20 0.91 4.16
 -1 -23 20 -0.96 5.33
 23 -3 -20 1.63 4.39
 3 -23 20 -3.35 5.58
 -3 -23 20 5.56 5.37
 23 3 -20 2.18 4.17
 5 -23 20 1.2 5.71
 23 -5 -20 6.3 4.49
 -23 -5 20 1.94 4.79
 23 5 -20 11.18 4.37
 -5 -23 20 10.77 6.12
 23 -7 -20 8.37 4.54
 -23 -7 20 11.55 4.85
 7 -23 20 -2.96 5.49
 23 7 -20 10.12 4.49
 -7 -23 20 9.39 5.07
 9 -23 20 1.37 5.26
 23 -9 -20 10.7 4.49
 -23 -9 20 11.36 5.01
 -9 -23 20 16.89 5.64
 23 -11 -20 9.39 4.4
 -23 -11 20 15.68 5.1
 11 -23 20 10.18 5.25
 -11 -23 20 8.09 5.23
 -23 -13 20 13.63 5.56
 13 -23 20 3.65 4.97
 23 -13 -20 15.54 4.73
 -13 -23 20 11.33 4.8
 15 -23 20 4.71 4.89
 -23 -15 20 13.9 5.62
 -15 -23 20 1.38 4.8
 -23 -17 20 13.05 5.06
 17 -23 20 -5.75 4.47
 -17 -23 20 2.75 5.12
 -23 -19 20 4.5 5.04
 -19 -23 20 4.61 5.01
 0 -24 20 89.35 6.76
 24 0 -20 89.71 6.95
 24 -2 -20 89.84 6.81
 2 -24 20 75.72 6.75
 24 2 -20 73.23 5.24
 -2 -24 20 74.52 6.56
 4 -24 20 54.64 6.26
 24 -4 -20 35.27 4.83
 24 4 -20 39.1 4.7
 -4 -24 20 46.34 6.53
 24 -6 -20 8.8 4.58
 -24 -6 20 10.23 4.84
 6 -24 20 17.03 5.54
 -6 -24 20 2.62 5.53
 24 6 -20 10.98 4.3
 8 -24 20 -1.77 5.33
 -24 -8 20 -2.32 5.14
 24 -8 -20 11.06 4.57
 -8 -24 20 3.86 5.63
 10 -24 20 -9.57 5.15
 -24 -10 20 2.89 4.97
 24 -10 -20 -2.24 4.45
 -10 -24 20 7.04 4.68
 -24 -12 20 7.68 5.36
 24 -12 -20 -0.94 4.37
 12 -24 20 10.48 5.17
 -24 -12 -20 2.34 3.97
 -12 -24 20 5.52 5.02
 14 -24 20 11.52 4.95
 -24 -14 20 9.56 5.26
 24 -14 -20 10.99 4.68
 -14 -24 20 11.05 5.06
 -24 -16 20 -0.34 5.44
 16 -24 20 5.27 4.65
 -16 -24 20 11.75 4.91
 -24 -18 20 9.65 4.88
 -18 -24 20 -0.87 4.42
 25 -1 -20 -1.72 4.24
 1 -25 20 3.46 6.01
 -1 -25 20 -0.45 6.01
 25 1 -20 5.79 4.21
 25 -3 -20 7.13 4.41
 3 -25 20 11.39 5.74
 25 3 -20 5.05 4.2
 -3 -25 20 1.97 6.02
 5 -25 20 8.38 5.56
 25 -5 -20 10.66 4.59
 -5 -25 20 6.15 5.46
 25 5 -20 12.57 4.26
 7 -25 20 -2.57 5.43
 -25 -7 20 4.42 4.71
 25 -7 -20 11.03 4.65
 -7 -25 20 -2.25 5.37
 25 -9 -20 4.8 4.57
 9 -25 20 6 5.39
 -25 -9 20 15.01 4.98
 -9 -25 20 15.84 5.06
 -25 -11 20 12.68 5.19
 11 -25 20 9.76 5.2
 25 -11 -20 2.62 4.51
 -11 -25 20 12.26 5.5
 13 -25 20 17.38 5.06
 -25 -13 20 2.4 5.16
 25 -13 -20 12.06 4.46
 -25 -13 -20 10.69 4.13
 -13 -25 20 2.82 5.23
 15 -25 20 14.61 4.84
 25 -15 -20 -1.82 4.82
 -25 -15 20 4.17 5.08
 -25 -15 -20 3.33 4.1
 -15 -25 20 14.64 5.01
 25 -17 -20 -8.77 4.57
 -25 -17 20 -4.83 5.14
 17 -25 20 1.83 4.69
 -17 -25 20 11.65 5.06
 26 0 -20 19.68 4.33
 0 -26 20 30.57 5.74
 26 -2 -20 21.44 4.45
 2 -26 20 19.53 5.44
 26 2 -20 20.06 4.36
 -2 -26 20 12.21 5.49
 4 -26 20 19.77 5.89
 26 -4 -20 6.07 4.42
 -4 -26 20 5.78 5.12
 26 4 -20 11.32 4.24
 26 -6 -20 11.55 4.66
 6 -26 20 11.76 5.37
 26 6 -20 17.81 4.38
 -6 -26 20 18.04 5.68
 -26 -8 20 8.65 4.74
 26 -8 -20 17.18 4.69
 8 -26 20 16.22 5.52
 -8 -26 20 17.44 5.36
 26 -10 -20 8.47 4.68
 10 -26 20 -4.08 5.26
 -26 -10 20 4.58 4.84
 -10 -26 20 13.76 5.51
 26 -12 -20 -0.26 4.53
 12 -26 20 6.91 5.09
 -26 -12 20 1.81 5.44
 -12 -26 20 -2.47 4.48
 26 -14 -20 4.98 4.52
 14 -26 20 8.86 5.07
 -14 -26 20 11.37 4.42
 27 -1 -20 1.73 4.44
 1 -27 20 4.77 5.83
 27 1 -20 5.03 4.2
 -1 -27 20 6.25 5.53
 27 -3 -20 -1.33 4.32
 3 -27 20 4.78 5.65
 27 3 -20 -1.93 4.16
 -3 -27 20 -5.26 5.58
 5 -27 20 -3.22 5.29
 27 -5 -20 2.84 4.46
 -5 -27 20 -8.87 5.7
 27 5 -20 3.91 4.18
 7 -27 20 4.93 5.42
 27 -7 -20 -5.86 4.75
 -7 -27 20 -4.56 4.87
 27 -9 -20 4 4.55
 -27 -9 20 -6.81 4.84
 9 -27 20 1.03 5.34
 -9 -27 20 0.26 5.39
 11 -27 20 -6.4 5.11
 -27 -11 20 -3.03 4.9
 27 -11 -20 3.03 4.7
 -11 -27 20 2.89 4.43
 13 -27 20 5.34 5.01
 -27 -13 20 1.43 5.03
 0 -28 20 11.96 5.47
 28 0 -20 7.55 4.11
 28 -2 -20 1.58 4.29
 2 -28 20 7.75 5.14
 28 2 -20 9.6 4.3
 -2 -28 20 0.89 5.5
 28 -4 -20 -1.21 4.47
 4 -28 20 13.77 5.78
 -4 -28 20 -0.91 5.1
 28 4 -20 4.69 4.12
 6 -28 20 6.5 5.25
 28 -6 -20 1.13 4.53
 -6 -28 20 3.41 4.79
 28 -8 -20 2.13 4.77
 -28 -8 20 -4.21 4.79
 8 -28 20 7.27 5.34
 -8 -28 20 7.38 5.45
 10 -28 20 -4.21 5.17
 -28 -10 20 -2.51 4.78
 28 -10 -20 5.17 4.6
 -10 -28 20 2.29 4.42
 29 -1 -20 6.2 4.28
 1 -29 20 -6.17 5.61
 29 1 -20 6.11 4.25
 -1 -29 20 -0.54 5.33
 29 -3 -20 5.99 4.31
 3 -29 20 10.28 5.38
 -3 -29 20 6.06 5.31
 29 3 -20 9.31 4.13
 5 -29 20 8.59 5.46
 -5 -29 20 10.71 5.52
 7 -29 20 -0.03 5.1
 29 -7 -20 -0.55 4.46
 -7 -29 20 1.54 5.07
 9 -29 20 4.49 5.14
 29 -9 -20 9.95 5.16
 -9 -29 20 6.41 4.59
 0 -30 20 30.22 5.17
 30 0 -20 46.27 4.76
 2 -30 20 41.45 5.5
 30 -2 -20 38.2 4.51
 -2 -30 20 34.9 5.33
 30 2 -20 43.05 4.43
 4 -30 20 39.61 5.69
 30 -4 -20 36.84 6.04
 1 0 -21 -0.76 3.89
 0 -1 -21 3.64 3.7
 0 1 -21 0.25 3.87
 1 2 -21 7.37 4.08
 1 -2 21 10.81 4.34
 2 -1 -21 4.89 4.15
 -1 -2 21 5.76 3.97
 1 -2 -21 0.25 3.76
 2 1 -21 -2.44 3.94
 0 3 -21 7.87 4.03
 0 -3 21 7.16 4.1
 -3 -2 21 0.17 4.06
 2 -3 21 -4.62 3.83
 3 -2 -21 -2.2 3.93
 2 3 -21 4.2 3.99
 3 2 -21 -2.39 3.65
 -2 -3 21 -3.32 4.19
 1 -4 21 -0.28 4.24
 4 -1 -21 0.55 4.17
 1 4 -21 2.36 4.06
 4 1 -21 -4.1 4.01
 -1 -4 21 -1.99 4.18
 -4 -3 21 1.06 4.33
 3 -4 21 -6.13 3.84
 3 4 -21 4.53 3.97
 4 3 -21 -1.45 3.89
 4 -3 21 -4.04 3.63
 -3 -4 21 -0.03 4.41
 5 0 -21 14.9 4.09
 0 -5 21 13.75 4.43
 -5 0 -21 17.73 3.31
 5 -2 -21 9.1 4.29
 2 -5 21 2.58 3.91
 -5 -2 21 6.71 4.38
 2 5 -21 5.03 3.69
 -2 -5 21 3.6 4.31
 5 2 -21 4.71 4.06
 -5 -4 21 2.37 4.61
 4 -5 21 -6.72 3.77
 4 5 -21 -1.42 4.02
 5 4 -21 -3.55 3.93
 -4 -5 21 -3.81 4.44
 5 -4 21 -0.65 3.5
 1 6 -21 -5.52 3.96
 1 -6 21 -1.76 4.25
 6 -1 -21 4.94 4.36
 -6 1 -21 -1.5 3.11
 -1 -6 21 2.89 4.37
 6 1 -21 5.22 3.96
 -6 -1 -21 2.62 3.1
 6 -3 -21 8.52 4.64
 -6 -3 21 5.81 4.59
 3 6 -21 8.37 4.01
 -6 3 -21 7.63 3.05
 6 3 -21 8.51 3.79
 -6 -5 21 -0.66 4.07
 5 -6 21 -7.69 3.78
 -5 -6 21 -10.26 4.48
 6 5 -21 7.87 3.83
 -7 0 -21 33.26 3.26
 0 7 -21 38.32 4
 7 0 -21 25 4.13
 0 -7 21 34.92 4.86
 7 -2 -21 26.6 4.31
 2 -7 21 27.29 4.39
 2 7 -21 17.97 4.29
 -7 -2 21 21.2 4.27
 -7 2 -21 27.79 3.29
 7 2 -21 23.76 4.37
 -2 -7 21 14.34 4.3
 -7 4 -21 15.01 3.27
 4 7 -21 21.08 4.14
 -7 -4 21 13.22 3.97
 4 -7 21 17.24 4.07
 7 4 -21 16.22 4.55
 7 -4 21 14.99 3.36
 -4 -7 21 10.15 4.53
 6 -7 21 0.27 3.64
 6 7 -21 -7.86 3.95
 -7 -6 21 -5.03 4.35
 7 6 -21 -1.46 4.22
 -6 -7 21 -8.06 4.44
 1 -8 21 10.89 4.26
 8 -1 -21 4.82 4.14
 1 8 -21 2.84 4.12
 -8 1 -21 -2.75 2.85
 8 1 -21 4.4 3.91
 -1 -8 21 -0.14 4.76
 -8 -1 -21 0.68 2.74
 3 -8 21 -6.78 4.22
 -8 -3 21 0.61 4.13
 -8 3 -21 0.35 2.96
 3 8 -21 6.03 4.11
 8 -3 -21 2.03 4.16
 8 3 -21 -0.85 3.65
 -3 -8 21 -5.78 4.36
 5 8 -21 13.64 4.49
 -8 5 -21 11.52 3.13
 5 -8 21 14.54 4
 -8 -5 21 5.94 3.97
 -5 -8 21 8.24 4.37
 8 5 -21 5.29 3.96
 8 -5 21 12.6 3.26
 -8 -7 21 8.02 4.05
 7 8 -21 18.38 4.59
 -7 -8 21 11.03 4.95
 8 7 -21 13.16 4
 8 -7 21 12.83 3.44
 9 0 -21 6.2 3.91
 0 -9 21 15.84 4.27
 -9 0 -21 11.74 2.74
 2 9 -21 10.09 4.66
 2 -9 21 2.71 4.16
 -9 -2 21 11.45 3.97
 -9 2 -21 7.09 2.72
 9 -2 -21 -0.86 4.11
 9 2 -21 5.22 4.24
 4 9 -21 0.68 4.71
 4 -9 21 1.51 3.92
 -9 4 -21 4.88 2.94
 9 -4 -21 -1.29 3.81
 -9 -4 21 1.71 3.98
 9 4 -21 0.59 4.38
 -4 -9 21 4.21 4.16
 6 9 -21 -4.53 4.08
 6 -9 21 -1.59 3.78
 9 6 -21 -4.74 4.02
 9 -6 21 -0.63 3.04
 -6 -9 21 -2.55 4.19
 -9 -8 21 -0.82 4.12
 8 9 -21 -1.45 4.59
 8 -9 21 9.65 3.55
 -8 -9 21 8.99 4.6
 9 8 -21 9.12 4.33
 9 -8 21 6.73 3.35
 1 -10 21 -7.58 4.24
 -10 1 -21 4.03 2.67
 10 -1 -21 -5.53 3.97
 1 10 -21 4.73 4.29
 10 1 -21 -6.02 3.86
 -1 -10 21 -6.79 4.24
 -10 -1 -21 -0.73 2.59
 -10 -3 21 7.41 3.8
 3 10 -21 2.31 4.94
 10 -3 -21 8.01 4.06
 3 -10 21 5.44 4.19
 10 3 -21 9.23 4.09
 -3 -10 21 0.61 4.32
 -10 -5 21 3.5 4.2
 5 10 -21 1.93 5.04
 5 -10 21 -2.9 4.04
 -5 -10 21 0.49 4.05
 10 5 -21 -8.48 4.26
 -10 -7 21 1.73 4.57
 7 10 -21 8.32 4.35
 7 -10 21 3.01 3.86
 10 7 -21 0.66 4.32
 10 -7 21 -0.49 2.97
 -7 -10 21 3.83 4.93
 -10 -9 21 -2.35 4.26
 9 -10 21 8.28 3.65
 9 10 -21 1.96 4.6
 10 9 -21 2.35 4.21
 10 -9 21 4.49 3.27
 -9 -10 21 4.44 4.09
 11 0 -21 27.4 4.1
 0 -11 21 18.87 4.49
 -11 2 -21 17.31 2.58
 11 -2 -21 9.86 4.11
 2 -11 21 11.9 4.59
 -11 -2 21 11.15 3.91
 11 2 -21 16.91 4.16
 4 -11 21 8.84 4.3
 -11 -4 21 14.01 4.04
 11 -4 -21 14.23 4.02
 11 4 -21 15.48 4.04
 -4 -11 21 8.58 4.56
 6 -11 21 5.03 3.97
 -6 -11 21 -1.61 4.74
 11 -6 21 -1.56 2.78
 11 6 -21 -3.58 4.32
 8 11 -21 6.48 4.85
 -11 -8 21 6.26 4.53
 8 -11 21 -2.02 3.71
 -8 -11 21 -0.6 4.19
 11 -8 21 2.52 2.97
 11 8 -21 -0.58 4.11
 10 -11 21 5.77 3.62
 10 11 -21 4.13 4.89
 -11 -10 21 7.51 4.35
 11 10 -21 -4.26 4.54
 -10 -11 21 -3.92 4.15
 11 -10 21 0.74 3.21
 1 -12 21 -7.49 4.49
 12 -1 -21 -9.3 3.95
 12 1 -21 -2.67 3.95
 -1 -12 21 -4.99 4.71
 3 -12 21 -4.82 4.26
 12 -3 -21 3.32 4.08
 -12 -3 21 -3.83 3.97
 -3 -12 21 1.92 4.97
 12 3 -21 -0.84 3.71
 12 -5 -21 0.73 4.08
 5 -12 21 3.44 4.31
 -12 -5 21 0.56 4.26
 12 5 -21 -3.03 4.03
 -5 -12 21 -2.28 4.24
 7 -12 21 3.43 4.08
 -12 -7 21 -4.3 4
 12 7 -21 4.09 4.23
 -7 -12 21 -1.07 4.87
 12 -7 21 -1.4 2.64
 9 -12 21 3.07 3.87
 -12 -9 21 3.4 4.26
 12 9 -21 9.18 4.93
 12 -9 21 4.78 3.05
 11 -12 21 0.05 3.59
 -12 -11 21 0.13 4.45
 12 -11 21 0.58 3.36
 -11 -12 21 4.7 4.13
 0 -13 21 16.5 4.51
 13 0 -21 29.91 4.45
 -13 -2 21 4.73 4.07
 13 -2 -21 4.58 4.11
 2 -13 21 11.92 4.64
 -2 -13 21 0.46 4.48
 4 -13 21 11.85 4.44
 -13 -4 21 7.73 4.39
 13 -4 -21 6.22 3.95
 13 4 -21 6.89 3.97
 -4 -13 21 -0.83 4.66
 -13 -6 21 -7.48 4.29
 6 -13 21 -2.08 4.31
 13 -6 -21 -2.03 3.96
 13 6 -21 0.92 4.05
 -6 -13 21 -2.31 4.69
 8 -13 21 -4.62 4.18
 -13 -8 21 5.88 4.69
 13 8 -21 5.98 4.26
 -8 -13 21 -9.13 5.05
 -13 -10 21 -0.93 4.45
 10 -13 21 -0.97 3.95
 13 -10 21 -1.77 3.08
 -10 -13 21 0.25 4.6
 13 10 -21 2.38 4.88
 -13 -12 21 -0.75 4.29
 12 -13 21 6.6 3.71
 13 -12 21 5.22 3.33
 -12 -13 21 -1.25 4.44
 1 -14 21 -1.57 4.34
 14 -1 -21 4.17 4.16
 14 1 -21 -0.19 3.85
 -1 -14 21 -4.52 4.46
 3 -14 21 -0.39 4.67
 -14 -3 21 -2.16 4.34
 14 -3 -21 5.52 4.09
 -3 -14 21 0.74 4.37
 14 3 -21 0.52 4.01
 14 -5 -21 2.73 4.44
 5 -14 21 1.19 4.56
 -14 -5 21 6.44 4.4
 -5 -14 21 -7.25 5.18
 -14 -7 21 0.55 4.27
 7 -14 21 0.98 4.44
 14 -7 -21 2.62 4.04
 -7 -14 21 2.3 4.4
 14 7 -21 -3.78 4.36
 9 -14 21 5.47 4.11
 -14 -9 21 -3.62 4.14
 14 9 -21 7.18 4.4
 -9 -14 21 -2.58 4.66
 -14 -11 21 -0.25 4.37
 11 -14 21 -3.7 3.95
 14 -11 21 4.05 3.01
 -11 -14 21 -7.12 4.63
 -14 -13 21 -1.25 4.84
 13 -14 21 5.24 3.73
 14 -13 21 0.66 3.46
 -13 -14 21 -2.22 4.59
 0 -15 21 1.6 4.48
 15 0 -21 2.68 3.95
 2 -15 21 -7.17 4.63
 15 -2 -21 -0.25 4.25
 -2 -15 21 8.17 4.54
 15 2 -21 1.8 4.07
 -15 -4 21 6.03 4.13
 15 -4 -21 -4.94 4.1
 4 -15 21 4.25 4.79
 -4 -15 21 -1.16 4.95
 15 4 -21 -0.29 3.98
 -15 -6 21 9.38 4.73
 6 -15 21 6.31 4.54
 15 6 -21 13.3 4.07
 8 -15 21 5.78 4.5
 -15 -8 21 -5.46 4.57
 -8 -15 21 -4.27 5.13
 15 8 -21 5.08 4.33
 10 -15 21 -2.1 4.28
 -15 -10 21 -3.87 4.36
 15 10 -21 7.46 4.74
 -10 -15 21 -9.69 4.73
 -15 -12 21 -1.96 4.58
 12 -15 21 -0.89 3.97
 -12 -15 21 3.33 4.86
 14 -15 21 1.44 3.82
 -14 -15 21 -0.92 5.05
 1 -16 21 -2.55 4.93
 16 -1 -21 2.75 4
 -1 -16 21 5.69 4.93
 16 1 -21 4.32 4.18
 3 -16 21 -3.01 5.09
 16 -3 -21 6.97 4.1
 16 3 -21 4.78 4.08
 -3 -16 21 2.03 5.24
 -16 -5 21 2.99 4.28
 16 -5 -21 5.24 4.21
 5 -16 21 2.82 4.65
 16 5 -21 7.42 4
 -5 -16 21 3.36 4.65
 -16 -7 21 -7.53 4.41
 16 -7 -21 1.89 4.04
 7 -16 21 -7.47 4.72
 16 7 -21 3.11 4.26
 -7 -16 21 2.83 5
 9 -16 21 2.94 4.44
 -16 -9 21 3.98 4.41
 -9 -16 21 3.46 4.63
 -16 -11 21 -5.64 4.55
 11 -16 21 -0.14 4.4
 -11 -16 21 -2.67 4.41
 13 -16 21 -4.36 4.05
 -16 -13 21 -8.77 4.94
 16 -13 21 -3.81 2.99
 -13 -16 21 -2.94 4.47
 15 -16 21 -6.69 3.82
 -16 -15 21 -0.63 4.95
 -15 -16 21 -2.38 4.57
 0 -17 21 -9.27 5.16
 17 0 -21 0.46 4.03
 17 -2 -21 -3.07 4.17
 2 -17 21 4.43 5.25
 -2 -17 21 -7.33 5.04
 17 2 -21 2.77 4.06
 17 -4 -21 -1.76 4.15
 4 -17 21 -5.76 4.88
 -17 -4 21 9.44 4.12
 17 4 -21 4.24 4.04
 -4 -17 21 3.25 4.74
 17 -6 -21 2.7 4.27
 -17 -6 21 -2.48 4.59
 6 -17 21 10.8 4.99
 17 6 -21 6.1 4.26
 -6 -17 21 4.05 5.48
 8 -17 21 0.2 4.82
 17 -8 -21 5.1 4.29
 -8 -17 21 3.45 4.66
 17 8 -21 13.74 4.35
 10 -17 21 -8.48 4.55
 -17 -10 21 -1.86 4.61
 -10 -17 21 0.04 4.51
 17 10 -21 3.96 4.63
 -17 -12 21 -1.39 5.22
 -12 -17 21 -0.34 4.5
 -17 -14 21 2.42 4.83
 14 -17 21 1.92 4.15
 -14 -17 21 5.08 4.51
 16 -17 21 3.16 3.85
 -17 -16 21 8.82 5.22
 -16 -17 21 1.47 4.47
 17 -16 21 -2.69 3.46
 18 -1 -21 4.13 4.15
 1 -18 21 -1.97 5.16
 18 1 -21 4.85 3.91
 -1 -18 21 2.85 5.14
 18 -3 -21 0.36 4.15
 3 -18 21 4.09 5.68
 18 3 -21 -2.27 4.04
 -3 -18 21 4.35 5.59
 18 -5 -21 4.6 4.22
 -18 -5 21 12.43 4.41
 5 -18 21 1.79 5.2
 -5 -18 21 -0.72 5.06
 18 5 -21 -4.46 4
 -18 -7 21 -6.62 4.45
 7 -18 21 5.92 4.97
 18 -7 -21 4.21 4.19
 18 7 -21 0.93 4.38
 -7 -18 21 2.9 5.28
 9 -18 21 1.37 4.96
 -18 -9 21 5.2 5.01
 18 -9 -21 9.57 4.25
 -9 -18 21 4.09 4.65
 18 9 -21 2.95 4.74
 11 -18 21 3.86 4.64
 -18 -11 21 -0.26 4.95
 -11 -18 21 -4.85 4.63
 13 -18 21 2.14 4.34
 -18 -13 21 2.72 4.7
 -13 -18 21 -1.75 4.64
 15 -18 21 4.62 4.21
 -18 -15 21 1.13 4.72
 -15 -18 21 7.14 4.41
 -18 -17 21 6.75 5.23
 17 -18 21 10.51 3.89
 -17 -18 21 -2.21 4.71
 0 -19 21 -1.21 5.28
 19 0 -21 7.36 4.06
 19 -2 -21 6 4.29
 2 -19 21 1.37 5.16
 19 2 -21 -0.62 3.98
 -2 -19 21 1.55 5.07
 19 -4 -21 -7.53 4.15
 -19 -4 21 -5.78 4.35
 4 -19 21 -5.25 5.39
 -4 -19 21 -6.4 5.12
 19 4 -21 -5.84 4.08
 -19 -6 21 -6.35 4.52
 19 -6 -21 7.17 4.26
 6 -19 21 -1.56 5.24
 -6 -19 21 -7.25 5.16
 19 6 -21 -2.91 4.34
 -19 -8 21 -1.36 4.72
 8 -19 21 -1.8 5.16
 19 -8 -21 7.27 4.24
 19 8 -21 1.45 4.53
 -8 -19 21 -1.02 5.07
 -19 -10 21 7.4 5.14
 10 -19 21 -8.04 4.82
 19 -10 -21 -0.39 4.31
 -10 -19 21 -0.72 4.7
 12 -19 21 -4.15 4.76
 -19 -12 21 6.57 4.88
 -12 -19 21 4.39 4.6
 -19 -14 21 -0.04 5.36
 14 -19 21 7.15 4.5
 -14 -19 21 2.14 4.62
 16 -19 21 6.74 4.13
 -16 -19 21 -5.29 4.6
 -19 -18 21 0.24 5.17
 -18 -19 21 -0.2 5.18
 1 -20 21 5.82 5.65
 20 -1 -21 0.73 4.14
 20 1 -21 3.24 4.08
 -1 -20 21 2.62 5.54
 20 -3 -21 -1.66 4.24
 3 -20 21 -3.15 5.34
 -3 -20 21 4.44 5.27
 20 3 -21 0.42 4.17
 20 -5 -21 2.88 4.22
 -20 -5 21 1.69 4.57
 5 -20 21 -1.88 5.6
 -5 -20 21 -8.87 5.13
 20 5 -21 -1.14 4.24
 -20 -7 21 -7.15 4.77
 20 -7 -21 -2.59 4.3
 7 -20 21 -2.37 5.19
 -7 -20 21 2.15 5.2
 20 7 -21 -8.67 4.31
 20 -9 -21 -1.54 4.59
 9 -20 21 -2.33 4.99
 -20 -9 21 3.12 4.76
 -9 -20 21 0.34 5.55
 20 9 -21 5.51 4.61
 20 -11 -21 0.72 4.4
 11 -20 21 -5.6 4.85
 -20 -11 21 -6.14 4.83
 -11 -20 21 -4.94 4.79
 -20 -13 21 -5.72 5.22
 13 -20 21 -0.36 4.6
 -13 -20 21 -2.05 4.63
 -20 -15 21 -2.45 5.37
 15 -20 21 4.28 4.49
 -15 -20 21 1.04 4.75
 -20 -17 21 -0.14 4.83
 -17 -20 21 1.26 5.21
 -20 -19 21 1.6 4.9
 -19 -20 21 5.48 4.99
 0 -21 21 16.97 5.95
 2 -21 21 -5.05 5.65
 21 -2 -21 -2.94 4.19
 -2 -21 21 13.38 5.82
 21 2 -21 -0.38 4.19
 4 -21 21 3.42 5.43
 21 -4 -21 3.16 4.37
 21 4 -21 -4.24 4.09
 -4 -21 21 0.75 5.25
 21 -6 -21 5.25 4.31
 6 -21 21 4.12 5.49
 -21 -6 21 -6.1 4.5
 -6 -21 21 -6 5.51
 21 6 -21 0.17 4.42
 8 -21 21 -4.98 5.22
 -21 -8 21 -4.43 4.66
 21 -8 -21 -2.46 4.25
 21 8 -21 6.77 4.46
 -8 -21 21 3.8 5.1
 -21 -10 21 -3.54 4.71
 21 -10 -21 0.34 4.58
 10 -21 21 2.94 5.17
 -10 -21 21 -12.64 5.43
 12 -21 21 2.05 4.87
 -21 -12 21 4.62 5.1
 -12 -21 21 4.9 5.57
 14 -21 21 8.27 4.66
 -21 -14 21 8.66 4.84
 -14 -21 21 2.96 5.38
 -21 -16 21 4.63 5.38
 16 -21 21 -1.1 4.41
 -16 -21 21 -2.52 5.28
 -21 -18 21 1.8 4.73
 -18 -21 21 2.11 4.82
 -21 -20 21 -4.93 4.55
 -20 -21 21 0.23 4.46
 1 -22 21 -4.78 5.75
 22 -1 -21 0.76 4.22
 -1 -22 21 5.8 5.87
 22 1 -21 0.36 4.17
 3 -22 21 13.85 5.53
 22 3 -21 5.56 4.16
 -3 -22 21 -1.22 5.64
 -22 -5 21 -0.84 4.64
 5 -22 21 -8.06 5.73
 22 -5 -21 -4.36 4.3
 -5 -22 21 1.13 5.24
 22 5 -21 2.27 4.21
 7 -22 21 -5.21 5.32
 -22 -7 21 -3.27 4.68
 22 -7 -21 3.87 4.37
 -7 -22 21 -8.53 5.52
 22 7 -21 5.46 4.31
 -22 -9 21 3.4 5.04
 9 -22 21 5.36 5.19
 22 -9 -21 7.55 4.32
 -9 -22 21 -1.11 4.89
 -22 -11 21 2.89 5.3
 22 -11 -21 -1.25 4.61
 11 -22 21 1.3 5.06
 -11 -22 21 7.8 4.79
 -22 -13 21 4.67 4.97
 22 -13 -21 -3.67 4.47
 13 -22 21 15.74 4.94
 -13 -22 21 7.66 4.93
 15 -22 21 -3.92 4.62
 -22 -15 21 -4.98 4.9
 -15 -22 21 0.55 4.89
 -22 -17 21 6.92 5.45
 17 -22 21 -0.58 4.37
 -17 -22 21 -0.72 4.51
 -22 -19 21 3.14 5.02
 -19 -22 21 8.56 4.56
 0 -23 21 -2.52 5.86
 23 0 -21 5.05 4.25
 2 -23 21 5.3 5.57
 23 -2 -21 8.82 4.24
 -2 -23 21 -6.18 5.85
 23 2 -21 1.03 4.16
 4 -23 21 -4.57 5.7
 23 -4 -21 -1.62 4.5
 23 4 -21 2.81 4.41
 -4 -23 21 10.53 5.32
 6 -23 21 2.86 5.42
 23 -6 -21 -4.97 4.5
 -23 -6 21 5.7 4.63
 -6 -23 21 13.77 5.67
 23 6 -21 -1.77 4.33
 -23 -8 21 9.87 4.82
 23 -8 -21 6.26 4.48
 8 -23 21 1.55 5.42
 -8 -23 21 -0.35 5.01
 23 8 -21 2.69 4.4
 23 -10 -21 -0.24 4.45
 -23 -10 21 -2.37 5.21
 10 -23 21 -5.96 5.24
 -10 -23 21 2.87 5.6
 23 -12 -21 0.42 4.65
 -23 -12 21 5.87 5.09
 12 -23 21 2.15 5.08
 -12 -23 21 5.34 5.28
 23 -14 -21 -6.15 4.73
 14 -23 21 2.01 4.77
 -14 -23 21 5.27 4.81
 16 -23 21 3.82 4.56
 -23 -16 21 -3.25 4.99
 -16 -23 21 -0.14 4.81
 -23 -18 21 6.94 5.3
 -18 -23 21 -1.7 5.07
 1 -24 21 7.54 5.58
 -1 -24 21 -2.64 5.34
 24 1 -21 7.47 4.31
 24 -3 -21 2.8 4.38
 3 -24 21 -8.29 5.81
 24 3 -21 -5.01 4.14
 -3 -24 21 0.12 5.3
 5 -24 21 7.49 5.67
 24 -5 -21 5.3 4.58
 24 5 -21 -0.19 4.23
 -5 -24 21 10.37 5.72
 24 -7 -21 5.08 4.54
 7 -24 21 6.21 5.67
 -24 -7 21 -6.39 4.69
 24 7 -21 -3.83 4.24
 -7 -24 21 3.96 5.49
 -24 -9 21 7.01 4.95
 9 -24 21 5.71 5.46
 24 -9 -21 -0.4 4.4
 -9 -24 21 4.05 5.18
 24 -11 -21 5.44 4.48
 -24 -11 21 8.27 5.06
 11 -24 21 0.75 5.27
 -11 -24 21 -4.27 4.6
 -24 -13 21 -2.26 5.34
 13 -24 21 4.21 4.98
 24 -13 -21 3.79 4.77
 -13 -24 21 -4.33 4.96
 -24 -15 21 8.23 5.44
 15 -24 21 6.14 4.9
 24 -15 -21 2.46 4.64
 -15 -24 21 13.95 4.99
 17 -24 21 -3.26 4.71
 -24 -17 21 0.26 4.91
 -17 -24 21 -0.72 4.77
 0 -25 21 -1.31 5.8
 25 0 -21 3.65 4.3
 2 -25 21 13.59 6.13
 25 -2 -21 0.05 4.31
 25 2 -21 1.4 4.16
 -2 -25 21 -4.95 5.64
 25 -4 -21 5.4 4.39
 4 -25 21 0.41 5.69
 -4 -25 21 -3.03 5.91
 25 4 -21 5.13 4.42
 6 -25 21 0.63 5.73
 25 -6 -21 0.02 4.55
 -6 -25 21 -4.56 5.72
 25 6 -21 4.02 4.29
 25 -8 -21 -0.2 4.59
 -25 -8 21 -2.72 4.94
 8 -25 21 -6.07 5.5
 -8 -25 21 7.85 4.93
 10 -25 21 5.9 5.39
 -25 -10 21 -6.42 4.96
 25 -10 -21 2.06 4.55
 -10 -25 21 2.64 5.27
 25 -12 -21 -6.16 4.51
 -25 -12 21 2.83 5.23
 12 -25 21 0.14 5.18
 -25 -12 -21 7.11 3.85
 -12 -25 21 -0.9 5.44
 25 -14 -21 0.61 4.84
 -25 -14 21 2.81 5.51
 14 -25 21 -2.6 4.85
 -25 -14 -21 4.96 4.04
 -14 -25 21 10 5.03
 25 -16 -21 0.17 4.71
 16 -25 21 -5.06 4.83
 -16 -25 21 -0.43 4.79
 1 -26 21 -5.57 5.76
 26 -1 -21 0.58 4.33
 26 1 -21 4.97 4.16
 3 -26 21 -8.75 5.36
 26 -3 -21 7.55 4.41
 26 3 -21 -2.19 4.27
 -3 -26 21 7.47 5.95
 5 -26 21 -3.68 5.79
 26 -5 -21 -0.75 4.46
 -5 -26 21 -2.3 5.38
 26 5 -21 1.79 4.19
 -26 -7 21 1.53 4.93
 26 -7 -21 4.08 4.72
 7 -26 21 9.32 5.52
 -7 -26 21 4.83 4.95
 9 -26 21 11.79 5.36
 26 -9 -21 5.01 4.62
 -26 -9 21 -2.68 4.72
 -9 -26 21 6.1 5.34
 11 -26 21 3.11 5.26
 26 -11 -21 -0.71 4.61
 -11 -26 21 -2.4 4.98
 -26 -13 21 0.63 5.33
 26 -13 -21 5.57 4.53
 13 -26 21 5.2 5.08
 -13 -26 21 5.23 4.49
 26 -15 -21 0.89 4.84
 -26 -15 21 -1.05 5.34
 15 -26 21 2.9 4.99
 -15 -26 21 -2.26 4.39
 0 -27 21 7.57 5.28
 27 0 -21 2.05 4.22
 27 -2 -21 -1.11 4.31
 2 -27 21 9.05 5.54
 27 2 -21 -1.06 4.31
 -2 -27 21 -3.66 5.14
 27 -4 -21 11.34 4.56
 4 -27 21 12.28 5.72
 -4 -27 21 4.97 5.11
 27 4 -21 19.17 4.29
 6 -27 21 -1.26 5.57
 27 -6 -21 -1.67 4.55
 27 6 -21 -10.06 4.22
 -6 -27 21 2.57 5.39
 8 -27 21 3.05 5.22
 -27 -8 21 -4.2 4.8
 27 -8 -21 11.04 4.76
 -8 -27 21 0.61 5.31
 10 -27 21 8.77 5.18
 27 -10 -21 4.13 4.67
 -27 -10 21 -1.56 4.76
 -10 -27 21 -2.17 4.78
 27 -12 -21 6.29 4.62
 -27 -12 21 11.76 5.39
 12 -27 21 0.08 5.06
 -12 -27 21 0.08 4.58
 1 -28 21 9.07 5.74
 28 -1 -21 0.32 4.29
 -1 -28 21 -5.27 5.8
 28 1 -21 1.64 4.27
 3 -28 21 -1.57 5.23
 28 -3 -21 1.39 4.49
 28 3 -21 -0.34 4.14
 -3 -28 21 7.87 5.77
 28 -5 -21 6.22 4.52
 -5 -28 21 7.64 5.62
 28 5 -21 1.03 4.14
 7 -28 21 3.19 5.34
 28 -7 -21 1.09 4.69
 -7 -28 21 1.48 4.95
 28 -9 -21 7.96 4.75
 9 -28 21 1.22 5.15
 -9 -28 21 4.85 4.99
 28 -11 -21 -1.88 4.7
 -28 -11 21 -5.22 4.84
 11 -28 21 0.36 5.22
 -11 -28 21 0.6 4.61
 0 -29 21 3.58 4.98
 29 0 -21 2.49 4.25
 29 -2 -21 9.26 4.44
 2 -29 21 -1.35 5.38
 -2 -29 21 -4.76 5.01
 29 2 -21 1.45 4.17
 4 -29 21 9.4 5.46
 29 -4 -21 2.16 4.45
 -4 -29 21 -4.33 4.72
 29 4 -21 4.15 4.09
 29 -6 -21 1.85 4.58
 6 -29 21 8.96 5.56
 -6 -29 21 3.41 4.69
 29 -8 -21 2.37 4.62
 -8 -29 21 -2.44 5.3
 1 -30 21 5.45 5.36
 30 -1 -21 0.31 4.25
 30 1 -21 2.82 4.3
 -1 -30 21 6.16 5.59
 3 -30 21 11.71 5.11
 30 -3 -21 3.01 4.39
 30 3 -21 -0.67 4.12
 -3 -30 21 6.6 5.52
 0 0 -22 -0.56 3.76
 1 1 -22 4.59 4.02
 1 -1 -22 -3.6 4.16
 2 0 -22 3.54 3.67
 0 -2 22 -0.83 4.28
 0 2 -22 7.71 3.84
 2 2 -22 3.2 3.93
 -2 -2 22 0.46 4.32
 2 -2 -22 2.15 3.78
 3 -1 -22 5.65 3.92
 1 3 -22 2.52 3.78
 3 1 -22 3.94 4.15
 3 3 -22 -8.42 4.26
 3 -3 22 0.31 3.86
 -3 -3 22 -3.41 4.27
 4 0 -22 2.73 4.57
 -4 -2 22 -8.8 4.28
 2 4 -22 1.06 3.44
 2 -4 22 -2.87 4.01
 4 -2 -22 5.5 4
 -2 -4 22 1.99 4.5
 4 2 -22 -1.18 4.43
 4 4 -22 -8.21 3.79
 -4 -4 22 0.06 4.4
 -5 1 -22 -0.55 3.14
 5 -1 -22 -2.63 3.92
 1 5 -22 3.49 3.86
 -1 -5 22 5.09 4.11
 -5 -1 -22 10.05 3.15
 5 1 -22 4.15 4.12
 3 -5 22 -8.65 4.01
 5 -3 -22 7.08 4.04
 3 5 -22 -5.69 4.11
 -5 -3 22 4.12 4.73
 5 3 -22 -2.9 3.77
 5 -5 22 -8.26 3.58
 5 5 -22 -7.19 4.09
 0 -6 22 -0.82 4.09
 -6 0 -22 1.72 3.1
 6 0 -22 2.24 3.85
 -6 2 -22 3.05 3.17
 -6 -2 22 2.45 4.34
 2 6 -22 -2.03 3.91
 6 -2 -22 -0.69 3.87
 2 -6 22 -3 4.06
 6 2 -22 3.14 4.39
 -2 -6 22 -7.3 4.18
 -6 -4 22 3.99 4.1
 4 6 -22 1.86 4.49
 4 -6 22 -3.85 3.73
 6 -4 22 -1.95 3.43
 -4 -6 22 -3.65 4.26
 6 4 -22 0.64 4.1
 6 6 -22 1.26 4.55
 -6 -6 22 -6.55 3.89
 6 -6 22 -3.99 3.56
 7 -1 -22 -2.16 4.14
 -7 1 -22 -2.64 3.04
 1 7 -22 -1.38 4.31
 1 -7 22 -8.12 4.31
 -1 -7 22 -9.84 4.39
 -7 -1 -22 -1.47 2.99
 7 1 -22 -0.56 4.01
 3 -7 22 5.34 4
 -7 3 -22 0.08 3.01
 -7 -3 22 -4.42 4.27
 3 7 -22 7.01 4.26
 7 3 -22 3.84 3.92
 -3 -7 22 4.43 4.34
 -7 -5 22 -1.95 4.46
 5 7 -22 6.44 4.02
 5 -7 22 0.12 3.73
 7 5 -22 0.79 3.7
 7 -5 22 6.35 3.29
 -5 -7 22 2.88 4.9
 -7 -7 22 21.26 4.93
 7 -7 22 7.55 3.51
 7 7 -22 12.34 4.05
 0 -8 22 -2.51 4.1
 8 0 -22 -0.87 3.75
 -8 0 -22 0.91 2.9
 -8 2 -22 3.8 2.94
 2 8 -22 4.9 4.06
 -8 -2 22 4.69 4.19
 2 -8 22 -3.36 4.06
 8 -2 -22 6.15 4.27
 -2 -8 22 -0.3 4.51
 8 2 -22 0.69 3.91
 -8 4 -22 6.73 3.15
 4 8 -22 3.29 4.16
 8 -4 -22 -1.25 3.83
 -8 -4 22 -1.26 4.36
 4 -8 22 10.59 4
 8 4 -22 6.63 4.25
 -4 -8 22 3.79 4.18
 6 -8 22 -0.1 3.82
 6 8 -22 1.06 4.42
 -8 -6 22 4.24 3.91
 8 6 -22 1.06 4.09
 -6 -8 22 -1.14 4.17
 8 -6 22 -0.46 3.26
 -8 -8 22 -5.87 4.67
 8 8 -22 -5.84 4.28
 8 -8 22 -0.62 3.48
 -9 1 -22 7.35 2.86
 9 -1 -22 -4.2 4.17
 1 9 -22 4.82 4.07
 1 -9 22 7.6 4.25
 -9 -1 -22 4.79 2.69
 9 1 -22 2.66 4.04
 -1 -9 22 3.59 4.36
 3 9 -22 10.52 4.12
 -9 -3 22 12.49 4.52
 9 -3 -22 11.66 4.17
 3 -9 22 13.54 4.23
 -9 3 -22 14.02 2.85
 9 3 -22 5.93 4.01
 5 9 -22 29.69 4.61
 5 -9 22 25.79 4.22
 9 -5 22 23.99 3.36
 -5 -9 22 20.21 4.57
 -9 -7 22 7.67 4.19
 7 -9 22 0.74 3.79
 9 -7 22 3.93 3.21
 -7 -9 22 2.49 4.31
 9 7 -22 8.2 4.33
 9 9 -22 39.8 4.8
 9 -9 22 40.1 3.97
 -9 -9 22 42.33 5.1
 10 0 -22 4.66 4.04
 -10 0 -22 2.07 2.56
 0 -10 22 -3.38 4.43
 0 10 -22 8.82 4.2
 -10 2 -22 0.18 2.59
 2 -10 22 -5.59 4.19
 -10 -2 22 1.68 4.18
 2 10 -22 1.53 4.28
 10 -2 -22 2.54 4.09
 -2 -10 22 0.67 4.16
 10 2 -22 -9.05 4.37
 4 -10 22 1.79 4.08
 -10 4 -22 6.05 2.92
 4 10 -22 4.58 4.16
 -10 -4 22 11.63 4.63
 10 -4 -22 -1 3.99
 10 4 -22 -4.66 4.03
 6 10 -22 3.49 4.73
 6 -10 22 -0.19 3.95
 -10 -6 22 -4.75 4.14
 -6 -10 22 1.93 4.1
 10 6 -22 0.48 4.13
 10 -6 22 -4.75 2.99
 8 10 -22 -4.02 4.26
 8 -10 22 -0.1 3.7
 -10 -8 22 3.54 4.07
 10 -8 22 8.28 3.13
 10 8 -22 4.92 4.13
 -8 -10 22 0.65 4.91
 10 -10 22 3.23 3.52
 10 10 -22 7.95 4.64
 -10 -10 22 -2.18 4.41
 11 -1 -22 -8.27 4.14
 1 -11 22 1.24 4.56
 -11 1 -22 0.75 2.61
 11 1 -22 -3.82 4.09
 -1 -11 22 -0.23 4.45
 3 -11 22 0.18 4.37
 -11 -3 22 -0.67 4.21
 11 -3 -22 1.63 4.19
 -3 -11 22 3.16 4.27
 11 3 -22 -1.29 3.83
 11 -5 -22 7.99 4.06
 11 5 -22 8.65 4.12
 -5 -11 22 15.75 4.54
 7 11 -22 2.55 4.47
 -11 -7 22 1.73 4.09
 7 -11 22 7.25 3.96
 11 7 -22 1.82 4.14
 -7 -11 22 -5.95 4.42
 11 -7 22 1.75 2.82
 9 -11 22 18.24 3.78
 9 11 -22 14.62 4.62
 11 -9 22 16.73 3.27
 -9 -11 22 22.07 4.74
 11 9 -22 16.02 4.97
 11 -11 22 4.06 3.52
 11 11 -22 2.03 4.6
 -11 -11 22 5.64 4.15
 0 -12 22 1.4 4.51
 12 0 -22 5.95 4.19
 -12 0 -22 1.33 2.42
 -12 -2 22 2.18 4.11
 12 -2 -22 6.04 4.53
 12 2 -22 8.21 3.93
 -2 -12 22 5.43 4.65
 12 -4 -22 7.98 4.27
 -12 -4 22 -1.42 4.23
 4 -12 22 2.39 4.34
 12 4 -22 8.44 3.88
 -4 -12 22 -2.23 4.61
 6 -12 22 -2.49 4.14
 12 -6 -22 3.84 3.98
 -12 -6 22 8.96 4.19
 -6 -12 22 5.03 4.18
 12 6 -22 2.62 4.17
 8 -12 22 0.01 4.03
 -12 -8 22 7.3 4.77
 12 8 -22 -4.51 4.22
 -8 -12 22 -6.25 4.86
 -12 -10 22 -9.64 4.11
 10 -12 22 -2.24 3.7
 12 -10 22 -5.61 3.13
 -10 -12 22 -5.17 4.38
 12 10 -22 -8.2 4.84
 12 -12 22 -0.53 3.49
 -12 -12 22 5.54 4.38
 13 -1 -22 2.96 3.96
 1 -13 22 11.27 4.77
 -1 -13 22 -8.02 4.51
 13 1 -22 -2.92 4.09
 -13 -3 22 3.13 4.38
 13 -3 -22 2.04 4.25
 3 -13 22 5.65 4.45
 -3 -13 22 6 4.61
 13 3 -22 -0.7 4.04
 13 -5 -22 22.74 4.39
 5 -13 22 18.08 4.43
 -13 -5 22 17.72 4.5
 13 5 -22 15.56 4.09
 -5 -13 22 25.04 4.94
 -13 -7 22 4.11 4.13
 13 7 -22 4.66 4.13
 -7 -13 22 -2.58 4.41
 9 -13 22 17.02 4.28
 -9 -13 22 12.72 4.77
 13 9 -22 18.14 4.5
 11 -13 22 1.4 3.78
 -13 -11 22 -7.01 4.21
 13 -11 22 3.6 3.24
 -11 -13 22 -0.94 4.9
 13 11 -22 3.34 5.1
 13 -13 22 13.53 3.69
 -13 -13 22 8.05 4.94
 14 0 -22 6.99 4.1
 0 -14 22 3.73 4.5
 14 -2 -22 9.32 4.07
 2 -14 22 -9.08 4.78
 -2 -14 22 0.29 4.46
 14 2 -22 -1.21 3.87
 -14 -4 22 4.53 4.08
 4 -14 22 -3.77 4.56
 14 -4 -22 0.77 4.14
 -4 -14 22 1.78 4.76
 14 4 -22 -0.06 4.18
 -14 -6 22 12.61 4.56
 14 -6 -22 11.59 3.98
 6 -14 22 11.78 4.56
 14 6 -22 6.8 4.12
 -6 -14 22 8.38 4.94
 -14 -8 22 4.23 4.56
 8 -14 22 3.86 4.33
 -8 -14 22 5.4 4.82
 14 8 -22 6.01 4.48
 10 -14 22 -7.56 4
 -14 -10 22 -3 4.15
 -10 -14 22 -1.21 4.15
 14 10 -22 3.44 4.67
 12 -14 22 -2.08 3.86
 -14 -12 22 3.21 4.47
 -12 -14 22 2.56 4.39
 14 -12 22 -2.48 3.2
 14 -14 22 0.19 3.56
 -14 -14 22 -3.82 4.32
 15 -1 -22 0.55 4.06
 1 -15 22 -1.81 4.65
 -1 -15 22 1.1 4.57
 15 1 -22 -1.67 3.96
 -15 -3 22 -0.6 3.97
 15 -3 -22 -0.12 4.37
 3 -15 22 1.39 4.74
 -3 -15 22 4.74 4.63
 15 3 -22 3.42 4.17
 15 -5 -22 13.83 4.29
 5 -15 22 9.9 4.67
 15 5 -22 14.98 4.44
 -5 -15 22 12.67 5.09
 15 -7 -22 1.03 4.18
 7 -15 22 -3.55 4.47
 -15 -7 22 9.75 4.28
 -7 -15 22 0.2 4.46
 15 7 -22 -3.34 4.44
 -15 -9 22 -1.51 4.38
 15 9 -22 -1.59 4.44
 -9 -15 22 4.96 4.73
 11 -15 22 -2.58 4.17
 -15 -11 22 -5.06 4.41
 -11 -15 22 2.77 4.92
 -15 -13 22 -3.17 4.97
 13 -15 22 1.45 3.92
 -13 -15 22 -8.88 5.07
 -15 -15 22 -7.41 4.99
 15 -15 22 -3.69 3.62
 0 -16 22 11.73 5.14
 2 -16 22 -1.71 5.04
 16 -2 -22 -2.1 3.95
 -2 -16 22 -0.02 5.18
 16 2 -22 3.71 4.06
 16 -4 -22 -1.57 4.15
 4 -16 22 6.86 4.66
 -16 -4 22 7.74 4.26
 -4 -16 22 -4.67 5.11
 16 4 -22 5.01 4.42
 16 -6 -22 -1.62 4.04
 -16 -6 22 -0.29 4.38
 6 -16 22 7.05 4.83
 16 6 -22 -0.78 4.04
 -6 -16 22 4.88 4.36
 -16 -8 22 -6.65 4.49
 16 -8 -22 -7.29 4.16
 8 -16 22 0.25 4.63
 16 8 -22 -3.62 4.41
 -8 -16 22 1.65 5.18
 10 -16 22 9.51 4.38
 -16 -10 22 1.49 4.36
 16 10 -22 3.66 4.59
 -16 -12 22 -0.52 4.76
 -12 -16 22 -9.02 4.49
 -16 -14 22 3.55 4.45
 14 -16 22 -7.71 4.01
 -14 -16 22 10.01 4.68
 16 -14 22 -0.22 3.31
 16 -16 22 2.23 3.62
 -16 -16 22 -4.81 4.97
 1 -17 22 -4.73 5.1
 17 -1 -22 8.97 4.37
 -1 -17 22 -2.07 5.04
 17 1 -22 4.74 4.25
 -17 -3 22 0.93 4.52
 3 -17 22 5.35 4.82
 17 3 -22 4.33 4.26
 -3 -17 22 3.35 4.97
 5 -17 22 9.04 5.02
 -17 -5 22 11.21 4.33
 17 -5 -22 10.54 4.32
 -5 -17 22 8.78 4.89
 17 5 -22 19.39 4.26
 -17 -7 22 0.5 4.6
 7 -17 22 1.01 4.76
 17 -7 -22 -6.74 4.34
 17 7 -22 10.54 4.34
 -17 -9 22 16 4.62
 17 -9 -22 14.78 4.22
 9 -17 22 14.24 4.78
 17 9 -22 11.79 4.56
 -9 -17 22 6.58 4.94
 11 -17 22 3.26 4.46
 -17 -11 22 -5.3 4.71
 -11 -17 22 7.23 4.62
 -17 -13 22 8.71 5.08
 13 -17 22 2.68 4.27
 -13 -17 22 -3.41 4.43
 15 -17 22 -4.22 3.96
 -17 -15 22 6.93 5
 17 -15 22 -0.48 3.27
 -15 -17 22 -6.54 4.57
 -17 -17 22 6.46 4.99
 17 -17 22 3.8 3.76
 18 0 -22 3.86 3.95
 0 -18 22 5.96 5.03
 18 -2 -22 2.13 4.18
 2 -18 22 7.2 5.57
 18 2 -22 -3.83 4.04
 -2 -18 22 -5.06 5.12
 -18 -4 22 2.28 4.53
 4 -18 22 -6.82 5.1
 18 -4 -22 0.4 4.17
 18 4 -22 1.02 4.28
 -4 -18 22 1.28 5.67
 -18 -6 22 -2.12 4.48
 18 -6 -22 3.9 4.25
 6 -18 22 4.37 5.16
 -6 -18 22 -3.79 4.75
 18 6 -22 -0.97 4.11
 8 -18 22 1.17 4.78
 18 -8 -22 -6.07 4.39
 -18 -8 22 -1.28 5
 -8 -18 22 -3.51 5.23
 18 8 -22 1.92 4.57
 -18 -10 22 -4.18 4.6
 10 -18 22 5.39 4.71
 18 -10 -22 -2.69 4.19
 18 10 -22 5.33 4.73
 -10 -18 22 3.51 4.78
 12 -18 22 6.31 4.57
 -18 -12 22 -2.39 5.09
 -12 -18 22 0.76 4.55
 -18 -14 22 -2.4 5.12
 14 -18 22 2.95 4.24
 -14 -18 22 2.85 4.49
 -18 -16 22 -2.48 5.05
 16 -18 22 4.55 4
 -16 -18 22 -1.65 4.6
 -18 -18 22 -11.74 4.9
 1 -19 22 -2.44 5.01
 19 -1 -22 0.57 4.12
 -1 -19 22 4.32 5.15
 19 1 -22 -2.28 4.04
 19 -3 -22 -0.37 4.25
 3 -19 22 -3.81 5.26
 19 3 -22 -6.99 4.28
 -3 -19 22 1.11 4.87
 19 -5 -22 3.46 4.22
 5 -19 22 -0.6 5.23
 -5 -19 22 5.02 5.26
 19 -7 -22 3.31 4.25
 7 -19 22 2.51 5.09
 -19 -7 22 -0.56 4.55
 19 7 -22 -0.22 4.42
 -7 -19 22 4.47 5.21
 -19 -9 22 10.14 5.06
 19 -9 -22 -4.78 4.35
 9 -19 22 3.54 5.01
 19 9 -22 6.61 4.71
 -9 -19 22 -0.53 5.34
 11 -19 22 7.49 4.69
 -19 -11 22 1.12 5.1
 -11 -19 22 2.01 4.73
 -19 -13 22 5.03 4.74
 13 -19 22 8.82 4.45
 15 -19 22 0.7 4.34
 -19 -15 22 11.57 4.83
 -15 -19 22 6.13 4.6
 -19 -17 22 -0.3 5.28
 17 -19 22 6.23 3.91
 -17 -19 22 2.05 4.73
 -19 -19 22 -7.45 5.21
 20 0 -22 -2.98 4.12
 2 -20 22 7.07 5.51
 20 -2 -22 -3.21 4.31
 -2 -20 22 -3.47 5.47
 20 2 -22 -1.11 4.19
 20 -4 -22 -6.45 4.4
 4 -20 22 12.42 5.53
 20 4 -22 3.42 4.3
 -4 -20 22 -1.28 5.08
 20 -6 -22 -4.07 4.24
 -20 -6 22 -10.73 4.73
 6 -20 22 -2.23 5.21
 -6 -20 22 -0.02 5.14
 20 6 -22 3.11 4.28
 -20 -8 22 6.02 4.77
 20 -8 -22 -3.2 4.26
 8 -20 22 -3.61 5.16
 20 8 -22 5.62 4.48
 -8 -20 22 4.58 5.16
 10 -20 22 6.13 4.93
 20 -10 -22 -2.18 4.54
 -20 -10 22 3.17 5.02
 -10 -20 22 5.38 5.65
 12 -20 22 -1.62 4.86
 -20 -12 22 -5.78 4.82
 -12 -20 22 1.37 5.1
 -20 -14 22 8.86 4.99
 -14 -20 22 6.29 4.75
 -20 -16 22 -2.56 4.73
 16 -20 22 -0.82 4.21
 -16 -20 22 10.86 4.92
 -20 -18 22 1.33 5.03
 -18 -20 22 0.12 5.32
 -20 -20 22 -4.39 4.85
 1 -21 22 -5.19 5.86
 21 -1 -22 4.5 4.1
 -1 -21 22 8.91 5.99
 21 -3 -22 6.48 4.41
 3 -21 22 -6.27 5.39
 21 3 -22 -3.71 4.23
 -3 -21 22 -7.9 5.79
 21 -5 -22 4.33 4.51
 -21 -5 22 -2.31 4.53
 5 -21 22 -8.14 5.64
 -5 -21 22 10.28 5.19
 21 5 -22 -0.01 4.29
 7 -21 22 12.08 5.33
 -21 -7 22 1.15 4.54
 21 -7 -22 2.65 4.4
 -7 -21 22 -1.37 5.55
 9 -21 22 -2.19 5.2
 -21 -9 22 3.13 4.83
 21 -9 -22 -1.26 4.37
 -9 -21 22 -5.46 4.96
 21 9 -22 8.36 4.57
 -21 -11 22 3.62 4.95
 21 -11 -22 -2.12 4.46
 11 -21 22 2.12 5
 -11 -21 22 -5.52 5.2
 -21 -13 22 4.8 5.39
 13 -21 22 6.44 4.7
 -13 -21 22 5.87 5.37
 -21 -15 22 6.95 5.39
 15 -21 22 2.57 4.61
 -15 -21 22 13.27 5.49
 -21 -17 22 2.73 4.78
 17 -21 22 2.02 4.21
 -17 -21 22 -0.91 5.09
 -21 -19 22 -4.42 4.76
 -19 -21 22 -0.31 4.78
 -21 -21 22 -5.17 4.42
 0 -22 22 -3.77 6.09
 22 0 -22 0.81 4.16
 2 -22 22 3.73 5.78
 22 -2 -22 -1.21 4.28
 22 2 -22 6.22 4.32
 -2 -22 22 0.44 5.97
 4 -22 22 7.37 5.56
 22 -4 -22 4.24 4.42
 -4 -22 22 1.85 5.63
 22 4 -22 2.64 4.14
 6 -22 22 -6.35 5.5
 -22 -6 22 -2.29 4.55
 -6 -22 22 4.25 4.96
 22 6 -22 4.67 4.37
 8 -22 22 -8.46 5.31
 -22 -8 22 -1.19 4.58
 22 -8 -22 -3.4 4.38
 22 8 -22 -3.3 4.59
 -8 -22 22 -4.42 5.49
 10 -22 22 5.01 5.22
 22 -10 -22 2.88 4.3
 -22 -10 22 5.68 4.87
 -10 -22 22 10.94 4.96
 22 -12 -22 -0.05 4.56
 -22 -12 22 0.13 5.18
 12 -22 22 -4.42 4.89
 -12 -22 22 4.83 4.6
 -22 -14 22 -1.36 4.93
 14 -22 22 -2.59 4.72
 -14 -22 22 4.08 4.84
 16 -22 22 -2 4.55
 -22 -16 22 -2.91 5.44
 -16 -22 22 -6.77 4.7
 -22 -18 22 2.5 4.78
 -18 -22 22 1.07 4.4
 -22 -20 22 -3.45 4.73
 -20 -22 22 -3.26 4.49
 23 -1 -22 -1.63 4.24
 1 -23 22 -4.85 5.87
 -1 -23 22 1.25 6.06
 23 1 -22 3.97 4.28
 3 -23 22 0.55 5.46
 23 -3 -22 3.37 4.44
 -3 -23 22 6.31 5.89
 23 3 -22 -5.76 4.23
 5 -23 22 2.77 5.74
 23 -5 -22 5.5 4.59
 -5 -23 22 4.27 5.2
 23 5 -22 -4.1 4.43
 7 -23 22 -0.76 5.55
 23 -7 -22 -7.23 4.42
 -23 -7 22 -7.74 4.86
 -7 -23 22 -1.8 5.23
 23 7 -22 4.21 4.39
 9 -23 22 -4.26 5.41
 23 -9 -22 0.22 4.56
 -23 -9 22 1.81 4.87
 -9 -23 22 3.32 5.2
 23 -11 -22 6.76 4.36
 -23 -11 22 7.23 5.34
 11 -23 22 -1.47 5.14
 -11 -23 22 -3.3 5.51
 13 -23 22 2.07 4.81
 -23 -13 22 7.7 5
 -13 -23 22 10.27 4.97
 -23 -15 22 -6.06 4.83
 23 -15 -22 1.41 4.51
 15 -23 22 0.94 4.6
 -15 -23 22 -2.53 4.66
 17 -23 22 8.52 4.48
 -23 -17 22 -4.83 5.36
 -17 -23 22 -0.42 4.71
 -23 -19 22 14.69 5.32
 -19 -23 22 6.14 5.17
 24 0 -22 -3.8 4.22
 0 -24 22 1.38 5.67
 2 -24 22 2.59 5.46
 24 -2 -22 -1.49 4.32
 24 2 -22 0.1 4.27
 -2 -24 22 -3.3 5.63
 4 -24 22 -6.84 5.97
 24 -4 -22 3.84 4.4
 -4 -24 22 -2.6 5.36
 24 -6 -22 7.95 4.56
 -24 -6 22 0.14 4.81
 6 -24 22 -1.13 5.42
 -6 -24 22 2.07 5.12
 24 6 -22 2.72 4.27
 -24 -8 22 1.05 4.86
 8 -24 22 2.19 5.41
 24 -8 -22 -4.53 4.46
 -8 -24 22 -4.74 5.48
 24 8 -22 0.7 4.48
 -24 -10 22 11.3 5.3
 24 -10 -22 -0.43 4.45
 10 -24 22 -2.75 5.13
 -10 -24 22 -0.35 4.78
 24 -12 -22 3.96 4.4
 -24 -12 22 0.34 5.04
 12 -24 22 4.72 5.1
 -12 -24 22 -8.06 4.72
 24 -14 -22 -7.99 4.74
 -24 -14 22 -0.25 5.19
 14 -24 22 5.41 4.82
 -14 -24 22 4.14 5.02
 24 -16 -22 -6.77 4.58
 16 -24 22 5.01 4.73
 -24 -16 22 1.99 4.92
 -16 -24 22 1.17 4.91
 25 -1 -22 -0.32 4.33
 1 -25 22 6.27 5.54
 25 1 -22 4.54 4.28
 -1 -25 22 -3.17 5.29
 3 -25 22 9.19 6.11
 25 -3 -22 -5.11 4.32
 25 3 -22 2.86 4.4
 -3 -25 22 -4.93 5.16
 5 -25 22 -7.55 5.42
 25 -5 -22 -0.79 4.6
 -5 -25 22 2.9 5.18
 25 5 -22 -3.05 4.21
 -25 -7 22 -1.59 4.8
 7 -25 22 3.68 5.52
 25 -7 -22 -0.42 4.57
 -7 -25 22 -4.1 5.76
 25 -9 -22 8.8 4.56
 -25 -9 22 -4.36 4.96
 9 -25 22 -0.29 5.45
 -9 -25 22 -5.11 4.67
 25 -11 -22 7.24 4.6
 11 -25 22 -3.65 5.1
 -25 -11 22 7.02 5.05
 -11 -25 22 2.69 5.34
 -25 -11 -22 1.9 3.58
 13 -25 22 2.24 5.06
 25 -13 -22 7.9 4.46
 -25 -13 -22 1.05 4.02
 -13 -25 22 5.08 5.25
 -25 -15 22 2.11 5.13
 15 -25 22 -7.52 4.82
 25 -15 -22 0.98 4.78
 -15 -25 22 -3.99 4.67
 0 -26 22 5.91 5.82
 26 0 -22 8.47 4.39
 2 -26 22 -1.32 5.79
 26 -2 -22 6.78 4.45
 -2 -26 22 8.23 5.69
 26 2 -22 2.16 4.34
 4 -26 22 1.5 5.45
 26 -4 -22 -2.11 4.4
 26 4 -22 2.33 4.3
 26 -6 -22 0.92 4.69
 6 -26 22 1 5.55
 -6 -26 22 2.24 5.73
 26 6 -22 1.16 4.31
 -26 -8 22 -0.76 4.61
 26 -8 -22 -1.47 4.66
 8 -26 22 5.66 5.4
 -8 -26 22 2.91 4.77
 10 -26 22 -8.81 5.2
 -26 -10 22 -7.44 4.78
 26 -10 -22 -5.74 4.58
 -10 -26 22 2.37 5.52
 12 -26 22 1.5 4.99
 26 -12 -22 -2.64 4.54
 -26 -12 22 -2.72 5.07
 -12 -26 22 2.8 4.5
 14 -26 22 7.01 4.97
 -26 -14 22 -3 5.4
 26 -14 -22 -0.17 4.54
 -14 -26 22 5.47 4.52
 1 -27 22 7.28 5.56
 27 -1 -22 3.69 4.45
 27 1 -22 2.8 4.22
 -1 -27 22 9.48 5.7
 27 -3 -22 13.83 4.53
 3 -27 22 4.14 5.51
 27 3 -22 8.68 4.41
 -3 -27 22 12.43 5.8
 5 -27 22 2.51 5.49
 27 5 -22 8.33 4.22
 -5 -27 22 8.02 5.54
 27 -7 -22 10.24 4.8
 7 -27 22 5.27 5.55
 -7 -27 22 3.8 4.8
 -27 -9 22 -5.33 4.83
 27 -9 -22 6.89 4.68
 9 -27 22 7.04 5.32
 -9 -27 22 3.78 5.49
 27 -11 -22 3.82 4.61
 -27 -11 22 -4.96 4.92
 11 -27 22 11.65 5.23
 -11 -27 22 1.54 4.41
 0 -28 22 -3.79 5.24
 28 0 -22 -0.4 4.26
 28 -2 -22 5.47 4.51
 2 -28 22 4.05 5.86
 -2 -28 22 -0.94 5.07
 4 -28 22 -4.73 5.28
 28 -4 -22 -2.57 4.51
 28 4 -22 4.84 4.11
 -4 -28 22 -0.24 4.98
 28 -6 -22 9.09 4.67
 -6 -28 22 6.88 5.21
 28 -8 -22 0.36 4.81
 8 -28 22 -5.46 5.37
 10 -28 22 9.2 5.17
 -28 -10 22 -4.54 4.7
 28 -10 -22 0.45 4.69
 -10 -28 22 0.28 4.46
 1 -29 22 2.88 5.5
 29 -1 -22 5.73 4.39
 -1 -29 22 5.61 5.69
 29 1 -22 5.06 4.29
 29 -3 -22 6.04 4.49
 -3 -29 22 -0.4 5.66
 29 -5 -22 1.27 4.66
 5 -29 22 -5.96 5.36
 29 5 -22 -4.88 4.09
 -5 -29 22 6.6 5.51
 7 -29 22 -0.9 5.38
 29 -7 -22 -1.91 4.62
 -7 -29 22 5.03 4.93
 0 1 -23 124.9 7.17
 0 -1 -23 115.4 7.23
 1 0 -23 127.32 7.58
 -1 -2 -23 73.01 5.74
 1 2 -23 73.96 4.9
 -1 -2 23 76.47 5.33
 1 -2 -23 71.31 4.99
 -3 -2 23 712.58 27.38
 4 -1 -23 62.28 5.14
 1 -4 23 46.91 4.51
 1 4 -23 60.24 4.32
 -1 -4 23 49.96 4.65
 3 4 -23 499.99 19.27
 -4 -3 23 495.65 19.41
 3 -4 23 499.31 19.24
 4 3 -23 466.68 19.35
 -3 -4 23 490.29 19.4
 -5 -4 23 530.69 20.8
 4 5 -23 518.79 20.7
 4 -5 23 516.95 20.58
 5 4 -23 550.72 20.78
 1 -6 23 6.71 4.17
 -6 1 -23 3 3.17
 6 -1 -23 3.92 4.54
 1 6 -23 3.43 4.25
 6 1 -23 12.19 4.55
 -1 -6 23 4.97 4.31
 3 -6 23 75 4.88
 -6 3 -23 64.09 4.27
 3 6 -23 64.12 5.01
 -6 -3 23 77.25 5.41
 6 -3 -23 68.62 5.04
 -3 -6 23 78.51 5.42
 6 3 -23 75.31 5.38
 5 -6 23 77.09 6.1
 5 6 -23 78.56 6.54
 -5 -6 23 67.66 5.07
 6 5 -23 75.95 5.11
 6 -5 23 69.89 5.79
 0 -7 23 155.17 8.63
 7 0 -23 150.93 8.38
 -7 0 -23 155.36 7.43
 -7 -2 23 236.9 10.61
 2 -7 23 238.98 10.38
 -7 2 -23 226.1 9.9
 7 -2 -23 226.15 10.69
 7 2 -23 229.08 10.81
 -2 -7 23 228.17 10.9
 7 -4 -23 33.01 4.62
 4 -7 23 23.78 4.08
 -7 -4 23 36.03 4.28
 -7 4 -23 25.56 3.41
 4 7 -23 27.69 4.46
 7 4 -23 28.85 4.09
 -4 -7 23 32.67 4.91
 6 7 -23 -6.21 4.39
 6 -7 23 -1.62 3.77
 -7 -6 23 1.57 4.25
 7 6 -23 3.82 3.89
 7 -6 23 2.67 3.48
 -6 -7 23 7.91 4.3
 1 8 -23 15.32 4.27
 -8 1 -23 4.71 2.98
 1 -8 23 10.86 4.4
 8 -1 -23 16 4.57
 -1 -8 23 2.04 4.42
 -8 -1 -23 8.2 2.88
 8 1 -23 9.46 4.03
 3 -8 23 30.42 4.42
 3 8 -23 40.82 4.6
 -8 3 -23 42.26 3.4
 8 -3 -23 42.08 4.57
 -8 -3 23 33.26 4.42
 -3 -8 23 39.73 4.89
 -8 5 -23 35.08 3.53
 -8 -5 23 36.75 4.58
 5 8 -23 35.63 4.33
 5 -8 23 24.96 4.18
 8 -5 23 39.44 3.58
 -5 -8 23 24.52 4.51
 8 5 -23 29 4.25
 7 8 -23 9.71 4.12
 7 -8 23 23.06 3.79
 -8 -7 23 17 4.65
 8 7 -23 17.25 4.11
 -9 -4 23 808.59 31.11
 9 -4 -23 828.57 31.11
 4 -9 23 818.63 31.05
 -4 -9 23 795.67 31.15
 9 4 -23 820.8 31.07
 -9 6 -23 192.45 8.93
 -9 -6 23 216.38 9.87
 6 -9 23 198 9.53
 6 9 -23 190.46 9.82
 9 -6 23 216.78 8.95
 -6 -9 23 200.58 9.94
 9 6 -23 212.92 9.76
 8 9 -23 52.5 4.87
 8 -9 23 59.58 4.43
 -9 -8 23 52.31 5.23
 9 -8 23 50.62 4.05
 9 8 -23 48.91 4.91
 -10 1 -23 6.7 2.73
 10 -1 -23 -1.08 4.14
 1 10 -23 0.84 4.2
 1 -10 23 -2 4.16
 -1 -10 23 -2.19 4.28
 10 1 -23 -1.88 4.03
 10 -3 -23 8.37 4.17
 -10 -3 23 4.33 4.33
 -10 3 -23 5.77 2.8
 3 -10 23 -0.47 4.18
 3 10 -23 2.71 4.59
 10 3 -23 1.79 3.72
 -3 -10 23 1.48 4.13
 10 -5 -23 -1.75 4.02
 5 10 -23 -0.57 4.23
 -10 -5 23 3.45 4.01
 10 5 -23 5.24 4.03
 -5 -10 23 1.31 4.29
 7 -10 23 39.36 4.27
 7 10 -23 38.71 5.03
 10 7 -23 43.37 4.82
 9 10 -23 13.73 4.59
 -10 -9 23 11.06 4.77
 9 -10 23 5.08 3.67
 10 9 -23 4.58 4.63
 10 -9 23 4.89 3.46
 -9 -10 23 3.54 4.68
 11 0 -23 429.94 17.53
 0 -11 23 447.1 17.65
 -11 -2 23 441.24 18.03
 11 -2 -23 450.68 18.03
 -11 2 -23 465.72 17.31
 2 -11 23 450.67 18.1
 -2 -11 23 440.74 18.12
 11 2 -23 456.19 17.96
 4 -11 23 222.69 10.6
 11 -4 -23 226.23 10.82
 -11 -4 23 242.53 10.85
 -11 4 -23 230.27 9.55
 11 4 -23 240.82 10.77
 -11 -6 23 20.27 4.03
 6 11 -23 17.38 5.15
 6 -11 23 11.32 4.21
 11 6 -23 16.93 4.53
 -6 -11 23 26.01 4.62
 8 11 -23 10.14 4.63
 8 -11 23 -3.91 3.97
 11 -8 23 -0.55 3.04
 -8 -11 23 0.49 4.41
 11 8 -23 -1.17 4.25
 10 11 -23 -1.4 4.66
 -11 -10 23 -6.65 4.3
 10 -11 23 2.76 3.62
 -10 -11 23 -0.29 4.53
 11 -10 23 0.48 3.4
 11 10 -23 5.29 4.71
 1 -12 23 -2.9 4.41
 12 -1 -23 -2.75 3.87
 -1 -12 23 -8.42 4.46
 -12 -1 -23 1.91 2.53
 12 1 -23 -1.32 4.04
 -12 -3 23 -2.34 4.18
 3 -12 23 1.41 4.3
 12 -3 -23 1.64 4.29
 12 3 -23 3.34 4.02
 -3 -12 23 1.16 4.64
 12 -5 -23 7.3 4.09
 5 -12 23 3.12 4.26
 -12 -5 23 -1.38 4.43
 12 5 -23 4.32 3.95
 -5 -12 23 0.6 4.36
 -12 -7 23 50.15 4.66
 -7 -12 23 49.7 4.78
 12 7 -23 49.4 4.61
 9 -12 23 3.89 3.83
 -12 -9 23 -4.79 4.32
 12 9 -23 4.63 4.36
 -9 -12 23 -3.32 4.5
 12 -9 23 1.96 3.07
 -12 -11 23 13.56 4.44
 11 -12 23 16.16 3.77
 -11 -12 23 10.37 4.93
 12 11 -23 14.45 5.27
 12 -11 23 13.01 3.46
 13 0 -23 148.07 8.27
 0 -13 23 151.3 8.67
 13 -2 -23 150.34 8.32
 2 -13 23 133.72 8.51
 -2 -13 23 138.66 8.47
 13 2 -23 138.9 8.1
 13 -4 -23 86.83 6.8
 -13 -4 23 85.31 5.56
 4 -13 23 87.41 5.72
 -4 -13 23 92.88 6.1
 13 -6 -23 5.09 4.02
 -13 -6 23 3.06 4.54
 6 -13 23 1.52 4.41
 -6 -13 23 1.82 4.62
 13 6 -23 8.97 4.15
 8 -13 23 8.79 4.18
 -13 -8 23 -9.02 4.69
 -8 -13 23 -1.1 4.35
 13 8 -23 2.51 4.49
 10 -13 23 4.08 4.01
 -13 -10 23 3.85 4.16
 13 10 -23 -1.64 4.55
 13 -10 23 -3.34 3.05
 12 -13 23 -6.21 3.61
 -13 -12 23 1.54 4.46
 13 -12 23 -0.62 3.38
 -12 -13 23 1.49 4.81
 14 -1 -23 3.73 4.22
 1 -14 23 10.67 4.87
 14 1 -23 11.42 4.15
 -1 -14 23 3.67 4.6
 14 -3 -23 45.86 4.67
 3 -14 23 41.19 4.99
 -14 -3 23 49.41 4.66
 -3 -14 23 49.35 5.11
 14 3 -23 45.26 4.48
 5 -14 23 48.48 5.12
 14 -5 -23 54.01 4.71
 -14 -5 23 42.71 4.55
 14 5 -23 58.14 4.9
 -5 -14 23 65.65 5.74
 -14 -7 23 117.27 7.47
 14 -7 -23 108.64 7.11
 7 -14 23 112.23 7.43
 14 7 -23 104.54 7.23
 -7 -14 23 102.38 7.66
 9 -14 23 51.77 4.76
 -14 -9 23 43.26 4.74
 14 9 -23 49.35 4.9
 11 -14 23 67.44 4.8
 14 -11 23 62.02 4
 14 11 -23 58.17 5.46
 -11 -14 23 46.55 4.94
 13 -14 23 28.93 4.01
 -14 -13 23 30.5 5.23
 14 -13 23 34.87 3.73
 15 0 -23 -1.04 4.19
 0 -15 23 -7.17 4.63
 15 -2 -23 5.96 4.19
 2 -15 23 10.04 4.8
 -2 -15 23 5.47 4.63
 -15 -4 23 -3.04 4.32
 4 -15 23 5.44 4.59
 15 -4 -23 -4.09 4.1
 -4 -15 23 -0.09 4.81
 6 -15 23 5.99 4.47
 -15 -6 23 11.79 4.19
 15 -6 -23 7.89 4.29
 15 6 -23 7.47 3.93
 -6 -15 23 1 4.89
 -15 -8 23 -1.01 4.38
 8 -15 23 -0.26 4.39
 15 -8 -23 5.07 4.01
 15 8 -23 1.11 4.5
 -8 -15 23 -4.01 4.69
 -15 -10 23 2.87 4.38
 10 -15 23 1.36 4.17
 -10 -15 23 -0.6 4.67
 15 10 -23 7.49 4.68
 -15 -12 23 -1.8 4.62
 12 -15 23 3.71 4.1
 15 -12 23 -1.94 3.14
 -12 -15 23 0.13 4.79
 -15 -14 23 6.89 4.48
 14 -15 23 8.53 3.8
 15 -14 23 8.68 3.41
 -14 -15 23 1.47 4.87
 1 -16 23 8.48 5.09
 16 1 -23 4.51 3.89
 -1 -16 23 8.24 5.15
 -16 -3 23 49.41 4.69
 3 -16 23 39.34 5.02
 16 -3 -23 44.25 4.58
 16 3 -23 40.4 4.44
 5 -16 23 98.43 6.42
 -16 -5 23 95.54 7.3
 16 -5 -23 108.78 7
 -5 -16 23 98.36 6.52
 16 5 -23 99.52 7.38
 -16 -7 23 151.66 8.61
 16 -7 -23 158.95 8.63
 7 -16 23 139.49 8.62
 16 7 -23 154.38 8.31
 -7 -16 23 145.4 8.91
 -16 -9 23 95.53 8.1
 9 -16 23 110.33 7.74
 -9 -16 23 110.28 8.08
 16 9 -23 121.88 8.13
 11 -16 23 65.86 5.26
 -11 -16 23 77.31 6.02
 13 -16 23 30.74 4.38
 -16 -13 23 30.04 5.25
 -13 -16 23 33.29 5.13
 -16 -15 23 8.93 5.14
 15 -16 23 7.84 3.84
 16 -15 23 8.46 3.39
 -15 -16 23 9.62 5.01
 0 -17 23 53.29 5.83
 17 0 -23 67.43 5.04
 17 -2 -23 71.58 5.34
 -2 -17 23 51.91 5.74
 17 2 -23 64.44 4.96
 17 -4 -23 47.88 4.6
 4 -17 23 45.22 5.58
 17 4 -23 40.45 4.47
 -4 -17 23 36.23 5.2
 6 -17 23 20.13 5.12
 -17 -6 23 8.09 4.3
 17 -6 -23 7.76 4.3
 17 6 -23 14.98 4.32
 -6 -17 23 19.83 5.02
 -17 -8 23 16.39 4.52
 8 -17 23 13.55 4.72
 17 -8 -23 7.28 4.25
 17 8 -23 17.51 4.56
 -8 -17 23 6.01 4.94
 -17 -10 23 6.93 4.54
 10 -17 23 14.32 4.56
 -10 -17 23 16.49 5.37
 17 10 -23 13.84 4.66
 -17 -12 23 20.85 5.08
 12 -17 23 13.92 4.4
 -17 -14 23 0.52 4.81
 14 -17 23 10.01 4.18
 -14 -17 23 8.08 4.5
 16 -17 23 -1.14 3.84
 -17 -16 23 4.72 5.31
 17 -16 23 3.68 3.8
 -16 -17 23 9.32 4.62
 1 -18 23 15.78 5.48
 18 1 -23 13.45 4.19
 -1 -18 23 8.76 5.08
 18 -3 -23 69.39 5.1
 18 3 -23 65.24 5.17
 -3 -18 23 77.63 5.98
 -18 -5 23 148.44 8.24
 5 -18 23 131.89 8.62
 18 -5 -23 127.57 7.91
 -5 -18 23 135.82 9.13
 18 5 -23 145.8 7.81
 -18 -7 23 160.66 8.91
 7 -18 23 150.66 9.11
 18 -7 -23 159.79 8.75
 18 7 -23 168.85 9
 -7 -18 23 153.87 9.73
 9 -18 23 129.63 8.31
 18 -9 -23 143.2 7.91
 -18 -9 23 128.63 8.69
 18 9 -23 141.06 8.76
 -9 -18 23 127.37 8.95
 -18 -11 23 117.09 8.26
 11 -18 23 93.71 7.6
 -11 -18 23 101.9 8.2
 13 -18 23 68.48 5.23
 -18 -13 23 62.65 5.66
 -18 -15 23 9.68 4.87
 -15 -18 23 10.77 4.58
 -18 -17 23 -2.45 5.11
 17 -18 23 -2 3.73
 -17 -18 23 1.69 4.65
 19 0 -23 161.61 8.79
 0 -19 23 163.2 9.99
 19 -2 -23 121.59 7.76
 2 -19 23 110.02 8.79
 -2 -19 23 104.94 8.98
 19 2 -23 120.1 7.34
 -19 -4 23 73.23 5.32
 4 -19 23 80.73 6.19
 19 -4 -23 67.96 5.2
 19 4 -23 68 5.15
 -19 -6 23 37.29 4.8
 6 -19 23 50.2 5.72
 19 -6 -23 43.39 4.9
 -6 -19 23 46.92 5.82
 19 6 -23 45.43 4.81
 -19 -8 23 25.57 5.13
 8 -19 23 14.55 5.14
 19 -8 -23 20.18 4.45
 -8 -19 23 19.86 5.14
 19 8 -23 21.94 4.65
 19 -10 -23 7.87 4.34
 -19 -10 23 9.35 4.67
 10 -19 23 6.61 4.89
 -10 -19 23 1.13 5.48
 19 10 -23 5.57 4.71
 12 -19 23 5.91 4.67
 -19 -12 23 -5.03 5.13
 -12 -19 23 -0.59 4.63
 -19 -14 23 -0.99 5.31
 14 -19 23 2.62 4.41
 -14 -19 23 3.34 4.49
 16 -19 23 12.38 4.19
 -19 -16 23 4.07 5.14
 -16 -19 23 9.76 4.64
 -19 -18 23 -7.43 5.28
 -18 -19 23 0.76 4.86
 1 -20 23 3.65 5.4
 20 -1 -23 -5.43 4.22
 20 1 -23 4.57 4.17
 -1 -20 23 -1.58 5.61
 20 -3 -23 22.55 4.43
 3 -20 23 13.52 5.33
 20 3 -23 21.3 4.41
 -3 -20 23 23.25 5.74
 -20 -5 23 40.2 5.31
 20 -5 -23 47.52 4.82
 5 -20 23 56.78 5.85
 -5 -20 23 38.68 5.72
 20 5 -23 44.76 4.75
 -20 -7 23 70.02 5.44
 20 -7 -23 53.73 5.07
 -7 -20 23 52.46 5.85
 20 7 -23 63.49 5.22
 -20 -9 23 60.31 5.64
 9 -20 23 52.72 5.59
 20 -9 -23 51.07 4.95
 -9 -20 23 50.08 5.94
 11 -20 23 40.53 5.18
 20 -11 -23 38.1 4.82
 -11 -20 23 45.64 5.9
 13 -20 23 31.06 4.79
 -20 -13 23 22.09 4.98
 -13 -20 23 27.35 5.2
 15 -20 23 5.49 4.48
 -20 -15 23 4.45 4.86
 -15 -20 23 11.59 4.85
 -20 -17 23 -2.26 5.11
 17 -20 23 -2.51 3.99
 -17 -20 23 -0.45 5.01
 -20 -19 23 -0.77 5.21
 -19 -20 23 1.81 5.22
 21 0 -23 133.2 7.96
 0 -21 23 126.37 9.34
 2 -21 23 103.18 7.15
 21 -2 -23 93.26 7.46
 21 2 -23 105.5 7.45
 -2 -21 23 109.81 7.36
 21 -4 -23 55.7 5.12
 4 -21 23 62.81 6.09
 21 4 -23 49.16 4.9
 -4 -21 23 72.01 6.57
 -21 -6 23 32.43 4.67
 6 -21 23 27.86 5.55
 21 -6 -23 31.23 4.62
 21 6 -23 32.1 4.67
 -6 -21 23 24.91 5.55
 8 -21 23 6.38 5.31
 21 -8 -23 10.92 4.36
 -8 -21 23 17.1 5.31
 21 8 -23 13.67 4.51
 21 -10 -23 -1.37 4.52
 10 -21 23 6.76 5
 -21 -10 23 3.58 5.18
 -10 -21 23 10.14 5
 -21 -12 23 -0.29 4.91
 21 -12 -23 -3.23 4.51
 12 -21 23 -2.74 4.9
 -12 -21 23 11.59 5.25
 -21 -14 23 -0.49 4.96
 -14 -21 23 -4.24 5.36
 16 -21 23 12.42 4.42
 -21 -16 23 7.57 4.84
 -16 -21 23 16.39 5.31
 -21 -18 23 13.05 5.09
 -18 -21 23 -4.45 5.01
 -21 -20 23 -5.7 4.84
 -20 -21 23 -0.22 4.75
 22 -1 -23 4.07 4.29
 1 -22 23 12.13 6.01
 -1 -22 23 0.19 5.83
 22 1 -23 9.72 4.38
 3 -22 23 6.41 5.53
 22 -3 -23 1.73 4.32
 22 3 -23 11.15 4.22
 -3 -22 23 6.56 5.96
 22 -5 -23 6.82 4.42
 5 -22 23 3.9 5.76
 -5 -22 23 7.21 5.86
 22 5 -23 14.38 4.42
 22 -7 -23 14.64 4.48
 7 -22 23 21.06 5.57
 -7 -22 23 6.71 4.97
 22 -9 -23 16.86 4.52
 -22 -9 23 16 5.02
 22 9 -23 15.21 4.65
 -9 -22 23 26.03 5.71
 11 -22 23 11.88 5.15
 -22 -11 23 8.99 5
 22 -11 -23 8.43 4.76
 -11 -22 23 6.12 4.68
 22 -13 -23 9.33 4.55
 13 -22 23 2.59 4.8
 -22 -13 23 18.61 5.42
 -13 -22 23 7.15 4.72
 15 -22 23 5.9 4.68
 -22 -15 23 8.27 5.25
 -15 -22 23 -1.64 4.86
 -22 -17 23 8.36 4.77
 17 -22 23 4.12 4.35
 -17 -22 23 4.05 4.73
 -22 -19 23 10.15 4.77
 23 0 -23 82.6 5.72
 0 -23 23 91.12 7.25
 23 -2 -23 58.24 5.19
 2 -23 23 66.2 6.52
 23 2 -23 69.39 5.42
 -2 -23 23 69.17 6.67
 4 -23 23 31.93 5.82
 23 -4 -23 26.91 4.78
 23 4 -23 33.41 4.6
 -4 -23 23 31.51 6.18
 -23 -6 23 14.52 5.01
 6 -23 23 10.54 5.5
 23 -6 -23 9.68 4.63
 23 6 -23 12.25 4.38
 -6 -23 23 5.21 5.5
 8 -23 23 3.34 5.34
 23 -8 -23 -0.5 4.38
 -23 -8 23 -4.76 4.72
 -8 -23 23 -11.25 4.85
 23 8 -23 -6.02 4.36
 10 -23 23 1.17 5.12
 23 -10 -23 6.24 4.6
 -23 -10 23 7.36 4.93
 -10 -23 23 -2.17 5.18
 23 -12 -23 -3.46 4.77
 -23 -12 23 1.41 5.34
 12 -23 23 0.58 4.98
 -12 -23 23 9.98 5.45
 14 -23 23 20.18 4.93
 -14 -23 23 8.93 4.83
 16 -23 23 15.97 4.72
 -23 -16 23 16.79 5.52
 -16 -23 23 15.21 4.58
 -23 -18 23 13.85 4.96
 -18 -23 23 8.88 4.61
 1 -24 23 1.21 5.84
 24 -1 -23 7.19 4.44
 -1 -24 23 -9.84 5.91
 24 1 -23 -1.32 4.31
 24 -3 -23 9.38 4.5
 3 -24 23 5.97 5.55
 24 3 -23 2.88 4.24
 -3 -24 23 8.98 6.18
 5 -24 23 2.21 5.64
 24 -5 -23 17.21 4.66
 -5 -24 23 8.1 5.75
 24 5 -23 13.09 4.56
 -24 -7 23 17.34 4.98
 24 -7 -23 11.15 4.66
 7 -24 23 12.55 5.72
 24 7 -23 15.61 4.73
 -24 -9 23 13.22 4.78
 24 -9 -23 10.01 4.65
 9 -24 23 7.6 5.26
 -9 -24 23 9.61 5.79
 -24 -11 23 12.73 5.48
 24 -11 -23 8.68 4.48
 11 -24 23 10.27 5.24
 -11 -24 23 5.79 4.66
 24 -13 -23 2.26 4.88
 13 -24 23 7.62 4.99
 -24 -13 23 9 5.05
 -13 -24 23 4.2 4.95
 24 -15 -23 -3.35 4.69
 15 -24 23 8.82 4.88
 -24 -15 23 0.98 4.87
 -15 -24 23 -3.83 5
 -17 -24 23 0.19 4.93
 0 -25 23 22.67 5.86
 25 0 -23 19.43 4.5
 2 -25 23 5.52 5.48
 25 -2 -23 15.34 4.58
 25 2 -23 5.37 4.3
 4 -25 23 4.18 5.8
 25 -4 -23 5.75 4.44
 -4 -25 23 5.59 5.77
 25 4 -23 2.82 4.34
 25 -6 -23 0.09 4.63
 6 -25 23 -4.44 5.53
 -6 -25 23 3.74 5.03
 25 6 -23 8.38 4.34
 25 -8 -23 1.81 4.61
 8 -25 23 -7.31 5.39
 -8 -25 23 -1.35 5.43
 10 -25 23 7.46 5.27
 -25 -10 23 -5.41 5.16
 25 -10 -23 5.59 4.51
 -10 -25 23 1.38 4.99
 25 -12 -23 9.79 4.49
 12 -25 23 -3.21 5.13
 -25 -12 23 3.32 5.07
 -12 -25 23 11.48 5.48
 14 -25 23 8.35 5
 -25 -14 23 8.5 5.12
 25 -14 -23 9.6 4.8
 -14 -25 23 9.07 4.87
 25 -16 -23 8.83 4.94
 16 -25 23 16.59 4.76
 -16 -25 23 6.79 4.4
 1 -26 23 -4.6 5.46
 -1 -26 23 7 5.32
 26 1 -23 0.05 4.29
 26 -3 -23 2.93 4.45
 3 -26 23 -4.28 5.71
 -3 -26 23 2.53 5.15
 26 3 -23 -1.13 4.32
 26 -5 -23 5.3 4.54
 5 -26 23 0.29 5.47
 26 5 -23 10.38 4.27
 -5 -26 23 5.95 5.07
 7 -26 23 0.56 5.33
 26 -7 -23 -1.81 4.65
 -7 -26 23 7.16 5.54
 26 7 -23 8.43 4.3
 -26 -9 23 -1.93 4.82
 9 -26 23 3.3 5.25
 26 -9 -23 2.94 4.57
 -9 -26 23 1.77 5.2
 26 -11 -23 5.18 4.5
 -26 -11 23 -0.04 4.88
 11 -26 23 -3.3 5.12
 -11 -26 23 4.89 5.16
 26 -13 -23 8.84 4.57
 13 -26 23 -3.25 4.93
 -26 -13 23 6.32 5.1
 -13 -26 23 9.9 4.5
 0 -27 23 122.49 9.22
 27 0 -23 126.31 8.05
 27 -2 -23 98.72 7.48
 2 -27 23 103.46 7.21
 -2 -27 23 91.95 7.11
 27 2 -23 108.86 7.28
 4 -27 23 50 6.17
 27 -4 -23 51.14 5.14
 -4 -27 23 55.54 6.15
 27 4 -23 60.77 5
 27 -6 -23 25.69 4.92
 -6 -27 23 36.66 6.11
 27 6 -23 33.74 4.47
 8 -27 23 -1.72 5.39
 -27 -8 23 8.52 4.98
 -8 -27 23 11.14 5.17
 -27 -10 23 0.5 4.75
 10 -27 23 -1.25 5.1
 -10 -27 23 0.89 4.9
 27 -12 -23 9.05 4.62
 -27 -12 23 1.98 4.96
 -12 -27 23 2.92 4.77
 28 -1 -23 3.11 4.49
 28 1 -23 6.09 4.36
 -1 -28 23 4.04 5.58
 3 -28 23 -7.26 5.75
 28 -3 -23 -1.15 4.51
 -3 -28 23 1.75 5.59
 28 3 -23 6.08 4.37
 5 -28 23 0.3 5.27
 28 -5 -23 1.31 4.57
 -5 -28 23 0.42 5.41
 28 5 -23 0.51 4.22
 7 -28 23 -4.31 5.38
 28 -7 -23 -1.56 4.69
 -7 -28 23 3.66 4.75
 -28 -9 23 -4.62 5.1
 9 -28 23 -10 5.15
 28 -9 -23 1.85 4.71
 -9 -28 23 -3.18 5.04
 0 -29 23 6.59 5.53
 29 0 -23 8.88 4.26
 29 -2 -23 8.66 4.53
 2 -29 23 -3.21 5.57
 29 2 -23 9.44 4.48
 -2 -29 23 -1.14 5.04
 4 -29 23 -0.75 5.26
 29 -4 -23 0.34 4.58
 29 4 -23 2.65 4.21
 -4 -29 23 1.8 4.91
 29 -6 -23 -1.81 4.6
 6 -29 23 -11.64 5.23
 -6 -29 23 5.17 4.96
 0 0 -24 82.51 6.62
 -1 -1 -24 -5.75 4.16
 1 1 -24 3.3 3.69
 1 -1 -24 4.17 3.81
 2 0 -24 56.66 4.77
 0 -2 -24 62.38 4.67
 0 2 -24 59.55 4.55
 2 -2 -24 57.42 4.63
 2 2 -24 58.36 4.95
 1 3 -24 4.11 3.62
 3 -1 -24 -5.54 4.17
 1 -3 24 -1.76 4.12
 3 1 -24 -5.53 4.14
 -1 -3 24 -6.29 4.11
 3 3 -24 1.48 3.85
 -3 -3 24 -3.27 4.29
 3 -3 -24 0.47 3.92
 0 4 -24 39.94 4.11
 0 -4 24 30.27 4.33
 4 -2 -24 14.91 3.95
 2 -4 24 23.17 4.06
 -2 -4 24 13.04 4.06
 4 2 -24 13.79 4.01
 4 -4 24 4.88 3.79
 4 4 -24 6.45 3.94
 -4 -4 24 -1.46 4.38
 1 -5 24 -3.46 3.92
 5 -1 -24 -4.77 3.93
 1 5 -24 7.85 3.75
 -5 1 -24 -3.55 3.24
 -1 -5 24 3.57 4.35
 5 1 -24 -6.61 4.05
 5 -3 -24 2.43 4.06
 3 -5 24 2.97 3.86
 -5 -3 24 7.95 4.15
 5 3 -24 5.71 4.1
 -3 -5 24 4.33 3.99
 5 -5 24 -1.79 3.59
 -5 -5 24 2.01 4.22
 5 5 -24 4.89 4.3
 6 0 -24 5.08 4.31
 0 -6 24 0.01 3.95
 -6 0 -24 -4.54 3.14
 6 -2 -24 0.72 4.07
 2 -6 24 6.13 3.97
 -6 -2 24 -2.05 3.99
 2 6 -24 3.8 4.07
 -6 2 -24 -3.85 3.15
 -2 -6 24 -3.68 4.34
 6 2 -24 -2.85 4.08
 4 6 -24 1.92 4.11
 -6 -4 24 6.83 4.22
 6 4 -24 0.86 3.51
 -4 -6 24 1.09 4.16
 6 6 -24 9.57 4.33
 -6 -6 24 4.65 4.76
 6 -6 24 9.92 3.57
 1 7 -24 -2.62 3.88
 7 -1 -24 5.05 4.05
 1 -7 24 0.78 4.14
 -7 1 -24 1 3.06
 -7 -1 -24 -1.32 3.08
 7 1 -24 2.77 3.92
 -1 -7 24 7.08 4.36
 3 7 -24 -2.43 4.17
 -7 -3 24 3.16 4.35
 -7 3 -24 2.48 3
 3 -7 24 -6.67 4.15
 -3 -7 24 -5.19 4.39
 7 3 -24 -2.96 4.06
 5 -7 24 0.84 3.72
 -7 -5 24 1.43 4
 5 7 -24 4.66 3.95
 -5 -7 24 -6.47 3.99
 7 -5 24 3.24 3.45
 7 5 -24 -1.59 3.93
 7 7 -24 -5.56 4.04
 -8 0 -24 120.69 6.21
 0 8 -24 114.23 7.19
 8 0 -24 109.08 7.41
 0 -8 24 116.75 7.49
 -8 2 -24 57.49 3.99
 2 8 -24 64.37 5.1
 2 -8 24 69.39 5.09
 8 -2 -24 50.09 4.76
 -8 -2 24 64.7 4.99
 8 2 -24 49.75 4.83
 -2 -8 24 72.07 5.33
 4 -8 24 7.82 3.99
 -8 -4 24 15.63 4.48
 4 8 -24 26.16 4.35
 -8 4 -24 19.63 3.34
 8 -4 -24 13.31 4.43
 8 4 -24 17.12 3.68
 -4 -8 24 11.17 4.17
 6 8 -24 5.24 4.33
 6 -8 24 3.7 3.77
 -8 -6 24 -4.07 4.12
 8 6 -24 1.52 3.85
 -6 -8 24 -0.56 4.44
 8 -6 24 -0.56 3.28
 8 -8 24 11.93 3.57
 -8 -8 24 6.49 4.16
 8 8 -24 12.03 4.45
 1 -9 24 -2.36 4.21
 9 -1 -24 0.63 4.14
 -9 1 -24 -4.73 2.88
 1 9 -24 -1.49 4.25
 9 1 -24 0.48 4.14
 -9 -1 -24 2.8 2.85
 -1 -9 24 -0.58 4.73
 3 -9 24 -6.27 4.28
 -9 -3 24 -3.4 3.93
 3 9 -24 -4.81 4.34
 -9 3 -24 -0.75 2.95
 9 -3 -24 0.77 4.13
 9 3 -24 5.17 3.81
 -3 -9 24 -4.54 4.2
 -9 -5 24 -1.96 4.45
 -9 5 -24 1.05 3.1
 5 9 -24 7.57 4
 9 -5 -24 4.73 4.41
 -5 -9 24 5.41 4.45
 9 5 -24 -5.85 3.79
 7 9 -24 19.18 4.68
 7 -9 24 14.25 3.98
 9 7 -24 8.28 4.38
 9 -7 24 15.55 3.4
 -7 -9 24 20.62 4.39
 9 -9 24 -4.54 3.59
 -9 -9 24 -0.75 4.02
 9 9 -24 0.33 4.16
 0 10 -24 33.38 4.33
 10 0 -24 27.55 4.32
 0 -10 24 33.2 4.74
 -10 0 -24 24.59 2.99
 10 -2 -24 3.91 4.47
 2 -10 24 11.21 4.39
 -10 -2 24 4.95 4.19
 -10 2 -24 4.37 2.75
 -2 -10 24 -3.5 4.29
 10 2 -24 7.94 4.06
 -10 4 -24 4.18 2.99
 10 -4 -24 0.74 3.94
 4 10 -24 -4.85 4.6
 4 -10 24 -3.04 4.2
 -10 -4 24 -1.08 4.07
 -4 -10 24 -5.37 4.17
 10 4 -24 0.52 3.81
 6 10 -24 0.18 4.43
 6 -10 24 7.55 3.99
 -10 -6 24 6.48 4.55
 -6 -10 24 -0.18 4.23
 10 6 -24 -1.11 4.26
 -10 -8 24 -1.61 4.09
 8 10 -24 -1.89 4.61
 8 -10 24 2.16 3.82
 10 -8 24 3.01 3.21
 10 8 -24 -0.18 3.87
 -8 -10 24 2.38 4.19
 10 -10 24 5.33 3.59
 10 10 -24 3.68 4.51
 -10 -10 24 2.15 4.57
 11 -1 -24 -1.63 3.84
 1 -11 24 2.4 4.23
 -11 1 -24 1.94 2.69
 11 1 -24 6.92 4.23
 -1 -11 24 3.53 4.77
 -11 -1 -24 3.43 2.59
 3 -11 24 -1.41 4.15
 -11 3 -24 0.98 2.77
 11 -3 -24 -7.62 4.43
 -11 -3 24 -1.73 3.96
 3 11 -24 2.53 4.27
 11 3 -24 5.26 4.14
 -3 -11 24 1.53 4.31
 5 -11 24 -3.16 4.06
 11 -5 -24 3.08 4.14
 -11 5 -24 5.78 2.9
 5 11 -24 4.2 4.49
 -5 -11 24 -5.03 4.35
 7 -11 24 -8.71 3.82
 7 11 -24 -0.24 4.82
 -7 -11 24 -1.52 4.54
 11 7 -24 1.35 4.03
 11 -7 24 -2.04 3.02
 9 -11 24 0.68 3.74
 -11 -9 24 2.27 4.58
 11 -9 24 1.05 3.28
 11 9 -24 -2.47 4.28
 -11 -11 24 -5.02 4.91
 11 -11 24 0.9 3.57
 11 11 -24 -2.58 4.9
 0 -12 24 20.73 4.49
 -12 0 -24 26.87 2.87
 12 0 -24 27.82 4.51
 12 -2 -24 3.16 3.98
 2 -12 24 7.63 4.48
 -12 -2 -24 4.93 2.48
 -2 -12 24 -4.75 4.4
 12 2 -24 -0.67 3.86
 12 -4 -24 -0.44 4.24
 4 -12 24 -3.01 4.34
 -12 -4 24 -1.84 4.22
 -4 -12 24 6.65 4.64
 12 4 -24 0.73 4.11
 12 -6 -24 4.25 3.93
 -12 -6 24 7.87 4.43
 6 -12 24 4.74 4.22
 -6 -12 24 -4.43 4.19
 12 6 -24 -1 4.19
 -12 -8 24 -6.8 4.47
 8 -12 24 -5.94 3.94
 -8 -12 24 3.85 4.19
 12 8 -24 -4.15 4.5
 -12 -10 24 5.35 4.32
 10 -12 24 -6.55 3.7
 12 10 -24 -0.65 4.45
 12 -10 24 -0.7 3.16
 -10 -12 24 -1.83 4.6
 12 -12 24 -3.36 3.53
 -12 -12 24 3.04 4.81
 1 -13 24 0.26 4.36
 13 -1 -24 -4.91 3.98
 13 1 -24 0.02 4.25
 -1 -13 24 -7.37 4.91
 3 -13 24 2.63 4.6
 -13 -3 24 1.53 4.07
 13 -3 -24 -0.95 4.05
 -3 -13 24 -0.18 4.64
 13 3 -24 -1.66 3.78
 5 -13 24 -7.88 4.22
 13 -5 -24 3.06 4.17
 -13 -5 24 2.41 3.99
 13 5 -24 -3.98 4.08
 -5 -13 24 -3.23 4.74
 13 -7 -24 2.54 4
 7 -13 24 0.97 4.27
 13 7 -24 -0.35 4.02
 -7 -13 24 1.77 4.52
 9 -13 24 7.05 4.15
 -9 -13 24 13.47 4.26
 13 9 -24 11.96 4.37
 11 -13 24 -2.43 3.79
 -13 -11 24 -3.56 4.27
 -11 -13 24 -5.14 4.41
 13 11 -24 -7.57 4.74
 13 -11 24 0.65 3.31
 13 -13 24 -3.44 3.55
 -13 -13 24 -2.92 4.82
 0 -14 24 -1.19 4.87
 14 0 -24 -3.81 4.3
 14 -2 -24 8.5 4.37
 14 2 -24 3.33 3.86
 -2 -14 24 -5.77 4.62
 14 -4 -24 6.93 4.33
 4 -14 24 0.69 4.57
 -14 -4 24 -1.16 4.44
 14 4 -24 1.12 3.96
 -4 -14 24 -0.94 4.68
 -14 -6 24 -2.49 4.1
 14 -6 -24 1.84 4.03
 6 -14 24 -5.34 4.47
 14 6 -24 0.54 4.09
 -6 -14 24 -1.44 5.13
 8 -14 24 -5.52 4.27
 -14 -8 24 -4.44 4.32
 -8 -14 24 -0.95 4.39
 14 8 -24 -5.98 4.59
 -14 -10 24 -1.64 4.14
 10 -14 24 -1.85 4.06
 14 10 -24 4.4 4.52
 -10 -14 24 -2.3 4.96
 12 -14 24 5.72 3.83
 -14 -12 24 -3.76 4.63
 -12 -14 24 -2.27 4.37
 14 -12 24 -2.82 3.34
 14 -14 24 -6.01 3.56
 -14 -14 24 -6.4 4.38
 1 -15 24 3.74 4.9
 15 -1 -24 7.79 4.04
 15 1 -24 4.67 3.96
 -1 -15 24 -1.9 4.73
 -15 -3 24 1.61 4.17
 15 -3 -24 -1.3 4.15
 3 -15 24 -0.98 4.5
 15 3 -24 2.81 3.98
 -3 -15 24 -0.94 4.62
 -15 -5 24 -1.8 4.47
 5 -15 24 6.3 4.59
 15 -5 -24 -6.79 4.11
 -5 -15 24 -8.99 4.82
 15 5 -24 -10.27 4.29
 15 -7 -24 4.29 4.13
 7 -15 24 1.58 4.45
 -7 -15 24 2.81 4.91
 15 7 -24 8.04 4.42
 -15 -9 24 4.12 4.32
 9 -15 24 13.16 4.56
 -9 -15 24 8.98 4.4
 15 9 -24 10.26 4.64
 -15 -11 24 3.06 4.31
 11 -15 24 6.6 4.15
 15 11 -24 4.45 4.93
 -11 -15 24 7.5 4.34
 13 -15 24 0.46 3.91
 -15 -13 24 -0.51 4.97
 -13 -15 24 6.86 4.74
 15 -15 24 -1.38 3.54
 -15 -15 24 3.78 4.88
 0 -16 24 4.18 5.07
 16 0 -24 -1.59 4.01
 2 -16 24 -4.4 4.71
 16 -2 -24 -6.37 3.93
 16 2 -24 -1.1 3.92
 -2 -16 24 -0.15 5
 -16 -4 24 6.64 4.02
 4 -16 24 9 5.04
 16 -4 -24 11.07 4.36
 16 4 -24 3.49 4.4
 -4 -16 24 13.74 5.35
 16 -6 -24 -1.33 4.17
 6 -16 24 -4.39 4.67
 -16 -6 24 -5.56 4.27
 -6 -16 24 -0.11 4.78
 16 6 -24 0.59 4.2
 8 -16 24 -0.1 4.63
 -16 -8 24 -2.63 4.34
 16 -8 -24 4.92 4.05
 16 8 -24 2.42 4.57
 -8 -16 24 6.03 4.77
 10 -16 24 2.03 4.43
 -16 -10 24 -0.56 4.55
 -10 -16 24 -4.84 4.87
 16 10 -24 2.6 4.83
 -16 -12 24 5.35 4.59
 12 -16 24 10.68 4.3
 -16 -14 24 5.47 4.57
 14 -16 24 -1.95 3.92
 -14 -16 24 -3.98 4.85
 16 -14 24 1.66 3.25
 -16 -16 24 -1.16 4.98
 16 -16 24 0.55 3.46
 17 -1 -24 -8.06 4.18
 1 -17 24 -0.64 4.7
 -1 -17 24 3.63 5.06
 17 1 -24 -0.14 3.89
 17 -3 -24 0.5 4.21
 3 -17 24 0.66 5.32
 17 3 -24 -5.64 4.19
 -3 -17 24 5.75 4.99
 17 -5 -24 0.55 4.32
 -17 -5 24 -2.36 4.29
 5 -17 24 4.01 4.83
 17 5 -24 -1.66 4.36
 -5 -17 24 -5.37 4.68
 7 -17 24 -2.5 4.74
 17 -7 -24 -3.55 4.08
 -17 -7 24 -2.19 4.58
 -7 -17 24 6.6 4.79
 17 7 -24 1.43 4.33
 17 -9 -24 9.77 4.4
 9 -17 24 6.56 4.66
 -9 -17 24 5.28 4.81
 17 9 -24 8.23 4.68
 11 -17 24 0.83 4.46
 -17 -11 24 4.05 4.46
 -11 -17 24 -8.57 5.27
 17 11 -24 1.44 4.93
 -17 -13 24 -6.59 4.99
 13 -17 24 -2.11 4.23
 -13 -17 24 -7.81 4.61
 15 -17 24 6.38 3.98
 -17 -15 24 1.04 4.84
 -15 -17 24 0.3 4.56
 -17 -17 24 3.8 4.87
 17 -17 24 2.27 5.2
 18 0 -24 30.5 4.59
 0 -18 24 33.41 5.46
 2 -18 24 35.37 5.67
 18 -2 -24 31.91 4.6
 18 2 -24 30.78 4.29
 -2 -18 24 32.26 5.14
 18 -4 -24 30.21 4.53
 -18 -4 24 24.14 4.56
 4 -18 24 32.97 5.29
 18 4 -24 20.97 4.6
 -4 -18 24 24.75 5.16
 18 -6 -24 9.92 4.27
 6 -18 24 11.02 4.98
 -18 -6 24 9.92 4.65
 -6 -18 24 2.5 5.37
 18 6 -24 12.62 4.16
 -18 -8 24 -1.43 4.36
 8 -18 24 6.2 4.83
 18 -8 -24 15.63 4.5
 -8 -18 24 1.88 4.52
 18 8 -24 9.35 4.42
 18 -10 -24 -3.59 4.24
 10 -18 24 8.5 4.74
 -18 -10 24 0.74 4.47
 18 10 -24 10.99 4.61
 -10 -18 24 -3.17 5.34
 -18 -12 24 -4.79 4.95
 12 -18 24 -4.61 4.54
 -12 -18 24 -1.05 4.75
 -18 -14 24 -2.25 4.76
 14 -18 24 2.21 4.26
 -14 -18 24 0.69 4.43
 -18 -16 24 -1.53 5.24
 16 -18 24 -0.92 3.91
 -16 -18 24 -2.89 4.44
 -18 -18 24 -9.18 4.76
 1 -19 24 -3.45 4.95
 -1 -19 24 3.8 5.19
 19 1 -24 -2.47 4.21
 3 -19 24 -0.95 5.36
 19 3 -24 1.88 4.26
 -3 -19 24 1.33 5.18
 19 -5 -24 -2.62 4.31
 5 -19 24 3.07 5.09
 -19 -5 24 3.14 4.23
 19 5 -24 5.2 4.22
 -5 -19 24 4.95 4.87
 -19 -7 24 0.26 4.63
 19 -7 -24 -3.48 4.36
 7 -19 24 5.58 5.02
 -7 -19 24 4.47 5.01
 19 7 -24 13.1 4.51
 9 -19 24 5.51 4.95
 19 -9 -24 3.63 4.45
 -19 -9 24 7.52 4.51
 19 9 -24 8.03 4.66
 -9 -19 24 2.94 5.15
 11 -19 24 7.59 4.72
 19 -11 -24 1.68 4.48
 -19 -11 24 8.32 4.72
 -11 -19 24 -4.6 5.36
 13 -19 24 0.57 4.45
 -19 -13 24 -0.32 4.97
 15 -19 24 8.16 4.34
 -19 -15 24 -0.22 4.77
 -15 -19 24 3.39 4.5
 17 -19 24 1.83 4.08
 -19 -17 24 3.75 5.33
 -17 -19 24 1.38 4.59
 -19 -19 24 -0.1 5.04
 0 -20 24 11.59 5.83
 20 0 -24 2.25 4.14
 20 -2 -24 8.25 4.44
 2 -20 24 7.25 5.42
 -2 -20 24 13.87 5.73
 20 2 -24 8.63 4.36
 20 -4 -24 12.48 4.5
 4 -20 24 12.87 5.6
 -4 -20 24 18.39 5.89
 20 4 -24 7.67 4.35
 20 -6 -24 1.77 4.51
 -20 -6 24 7.3 4.63
 6 -20 24 -1.23 5.19
 20 6 -24 4.79 4.41
 -6 -20 24 5.15 5.29
 8 -20 24 -4.09 5.06
 -20 -8 24 3.8 4.67
 20 -8 -24 1.03 4.26
 -8 -20 24 5 4.97
 20 8 -24 7.6 4.77
 20 -10 -24 7.36 4.63
 -20 -10 24 0.85 4.66
 10 -20 24 7.17 4.92
 -10 -20 24 4.7 5.33
 20 10 -24 2.02 4.78
 12 -20 24 -7.41 4.61
 -20 -12 24 -1.46 5.19
 20 -12 -24 -1.11 4.44
 -12 -20 24 6.7 5.56
 -20 -14 24 6.65 5.35
 14 -20 24 1.84 4.62
 -14 -20 24 9.94 4.98
 -20 -16 24 1.9 5.03
 16 -20 24 -2.69 4.23
 -16 -20 24 0.9 4.81
 -20 -18 24 8.95 5.43
 -18 -20 24 2.67 4.97
 -20 -20 24 0.63 5.2
 21 -1 -24 -0.21 4.2
 1 -21 24 9.54 5.81
 21 1 -24 -3.96 4.23
 -1 -21 24 0.88 5.58
 3 -21 24 3.79 5.35
 21 -3 -24 1.67 4.55
 -3 -21 24 5.62 5.4
 21 3 -24 3.34 4.34
 -21 -5 24 2.71 4.51
 5 -21 24 3.1 5.41
 21 -5 -24 7.45 4.47
 21 5 -24 4.15 4.21
 -5 -21 24 9.49 5.76
 -21 -7 24 4.25 5.03
 7 -21 24 0.13 5.32
 21 -7 -24 -5.21 4.28
 21 7 -24 2.91 4.39
 -7 -21 24 7.72 5.28
 21 -9 -24 4.74 4.32
 9 -21 24 -0.64 4.99
 -21 -9 24 8.6 4.81
 -9 -21 24 7.65 4.99
 21 9 -24 12.61 4.68
 11 -21 24 11.1 4.87
 21 -11 -24 7.62 4.57
 -21 -11 24 6.13 5.27
 -11 -21 24 -0.17 4.76
 -21 -13 24 -0.63 4.67
 13 -21 24 6.3 4.66
 21 -13 -24 -4.8 4.52
 -13 -21 24 1.23 5.32
 15 -21 24 -0.15 4.54
 -21 -15 24 -5.17 4.95
 17 -21 24 2.78 4.23
 -21 -17 24 6.78 5.01
 -17 -21 24 4.35 5.25
 -21 -19 24 12.57 5.23
 -19 -21 24 -11.04 4.98
 0 -22 24 8.48 5.58
 22 0 -24 5.95 4.27
 22 -2 -24 5.85 4.31
 2 -22 24 10.98 5.82
 -2 -22 24 -6.84 5.28
 22 2 -24 4.51 4.32
 22 -4 -24 -6.46 4.39
 22 4 -24 3 4.19
 -4 -22 24 -8.07 5.23
 22 -6 -24 6.4 4.38
 6 -22 24 -2.41 5.28
 -22 -6 24 -3.35 4.48
 22 6 -24 8.6 4.51
 -6 -22 24 4.96 5.84
 -22 -8 24 -4.26 5.05
 22 -8 -24 2.83 4.34
 8 -22 24 6.79 5.28
 22 8 -24 2.9 4.57
 -8 -22 24 -3.9 5.19
 -22 -10 24 -0.64 5.22
 10 -22 24 2.3 5.01
 22 -10 -24 -6.31 4.39
 -10 -22 24 6.78 5.45
 22 -12 -24 -7.03 4.62
 -22 -12 24 1.51 4.96
 12 -22 24 3.2 4.94
 -12 -22 24 5.91 4.62
 14 -22 24 1.03 4.66
 22 -14 -24 -6.28 4.66
 -22 -14 24 5.6 5.05
 -14 -22 24 3.54 4.78
 -22 -16 24 5.45 4.76
 16 -22 24 2.67 4.49
 -16 -22 24 7.69 4.86
 -22 -18 24 7.9 5
 -18 -22 24 3.76 4.77
 23 -1 -24 4.02 4.36
 1 -23 24 8.16 6.06
 -1 -23 24 4.86 5.45
 3 -23 24 9.38 5.62
 23 -3 -24 -0.25 4.4
 -3 -23 24 9.28 5.27
 23 3 -24 5.12 4.44
 23 -5 -24 6.14 4.55
 5 -23 24 -1.4 5.69
 23 5 -24 -3.77 4.35
 -5 -23 24 2.69 5.52
 -23 -7 24 7.01 4.83
 7 -23 24 -3.95 5.61
 23 -7 -24 9.45 4.46
 23 7 -24 -2.12 4.45
 -7 -23 24 9.14 5.75
 -23 -9 24 1.24 5.13
 23 -9 -24 -2.05 4.48
 23 9 -24 5.81 4.73
 -9 -23 24 1 4.85
 11 -23 24 8.47 5.11
 -23 -11 24 0.1 5
 23 -11 -24 5.3 4.43
 -11 -23 24 9.43 5.33
 -23 -13 24 -5.97 5.38
 23 -13 -24 -1.35 4.78
 13 -23 24 1.86 4.88
 -13 -23 24 4.9 5.16
 -23 -15 24 0.58 5.23
 15 -23 24 -0.4 4.66
 23 -15 -24 -7.03 4.61
 -15 -23 24 1.1 4.5
 -17 -23 24 4.76 4.41
 24 0 -24 9.57 4.55
 0 -24 24 12.86 6.04
 24 -2 -24 8.04 4.31
 2 -24 24 0.47 5.76
 24 2 -24 2.15 4.33
 -2 -24 24 -4.83 5.58
 4 -24 24 6.68 5.64
 24 4 -24 11.47 4.43
 -4 -24 24 2.46 5.57
 6 -24 24 2.03 5.44
 24 -6 -24 -0.86 4.49
 24 6 -24 6.14 4.45
 -6 -24 24 -11.98 5.77
 24 -8 -24 5.53 4.55
 -24 -8 24 -1.45 4.83
 8 -24 24 -4.72 5.32
 -8 -24 24 -1.76 5.11
 24 8 -24 -2.85 4.48
 -24 -10 24 -4.07 4.93
 24 -10 -24 4.83 4.57
 10 -24 24 1.98 5.11
 -10 -24 24 6.68 5.26
 24 -12 -24 6 4.41
 -24 -12 24 -1.03 5.37
 12 -24 24 -0.84 5.09
 -12 -24 24 6.29 4.59
 -24 -14 24 6.11 5.19
 24 -14 -24 -0.87 4.65
 14 -24 24 2.88 4.87
 -14 -24 24 0.5 5.07
 16 -24 24 -4.48 4.61
 -24 -16 24 6.25 5.34
 24 -16 -24 -1.04 4.75
 -16 -24 24 -2.51 5.12
 1 -25 24 -3.71 5.67
 25 -1 -24 -8.87 4.43
 25 1 -24 10.18 4.44
 -1 -25 24 3.66 6.09
 25 -3 -24 6.21 4.48
 25 3 -24 -1.46 4.35
 -3 -25 24 6.48 5.99
 25 -5 -24 4.48 4.55
 5 -25 24 -1.82 5.56
 -5 -25 24 -1.19 5.85
 25 5 -24 0.13 4.54
 25 -7 -24 -3.72 4.61
 7 -25 24 12.08 5.41
 25 7 -24 3.39 4.49
 -7 -25 24 -3.74 5.44
 -25 -9 24 -5.76 4.77
 25 -9 -24 -2.07 4.62
 9 -25 24 2.79 5.35
 -9 -25 24 4.54 4.8
 11 -25 24 3.39 5.06
 -25 -11 24 0.44 5.14
 25 -11 -24 7.5 4.71
 -11 -25 24 7.61 5.27
 13 -25 24 5.79 5.04
 25 -13 -24 6.67 4.45
 -25 -13 24 12.25 5.02
 -13 -25 24 7.21 5.13
 25 -15 -24 1.13 4.85
 -25 -15 24 -2.16 4.87
 -15 -25 24 -3.87 4.33
 26 0 -24 5.01 4.49
 0 -26 24 -3.99 5.59
 2 -26 24 3.1 5.57
 26 -2 -24 -0.21 4.5
 26 2 -24 -3.97 4.25
 -2 -26 24 -4.55 5.73
 26 -4 -24 0.94 4.41
 4 -26 24 9.69 5.72
 -4 -26 24 10.02 5.78
 26 4 -24 10.13 4.58
 6 -26 24 -3.11 5.66
 26 -6 -24 7.39 4.73
 26 6 -24 6.06 4.3
 -6 -26 24 1.59 5.44
 26 -8 -24 7.14 4.71
 -8 -26 24 2.74 4.87
 10 -26 24 -5.39 5.1
 26 -10 -24 0.5 4.66
 -26 -10 24 4.03 5.24
 -10 -26 24 1.63 5.42
 -26 -12 24 -1.09 4.96
 12 -26 24 1.38 4.99
 26 -12 -24 -9.61 4.52
 -12 -26 24 3.79 4.46
 27 -1 -24 12.34 4.52
 1 -27 24 -2.7 5.66
 27 1 -24 7.64 4.29
 -1 -27 24 12.84 5.29
 3 -27 24 12.56 5.63
 27 -3 -24 2.86 4.5
 -3 -27 24 6.55 5.18
 27 3 -24 6.42 4.4
 5 -27 24 -0.31 5.7
 27 -5 -24 1.51 4.52
 27 5 -24 3.95 4.28
 -5 -27 24 9.81 5
 7 -27 24 -1.81 5.4
 -7 -27 24 -2.19 4.92
 27 7 -24 -1.36 4.23
 9 -27 24 9.86 5.4
 27 -9 -24 -0.79 4.63
 -27 -9 24 3.25 4.77
 -9 -27 24 0.4 5.43
 27 -11 -24 2.31 4.69
 11 -27 24 -7.71 5.05
 -27 -11 24 1.28 4.85
 -11 -27 24 4.5 4.49
 28 0 -24 -0.95 4.39
 0 -28 24 3.81 5.87
 2 -28 24 0.27 5.36
 28 -2 -24 4.63 4.52
 -2 -28 24 2.13 5.54
 28 2 -24 1.28 4.4
 4 -28 24 7.32 5.79
 28 -4 -24 2.65 4.55
 28 4 -24 3.29 4.24
 -4 -28 24 -2.49 5.29
 6 -28 24 -1.02 5.31
 28 -6 -24 1.64 4.59
 28 6 -24 2.81 4.26
 -6 -28 24 -3.02 5.55
 8 -28 24 -1.95 5.16
 28 -8 -24 10.93 4.82
 -8 -28 24 -7.02 5.26
 1 -29 24 -7.22 5.2
 29 -1 -24 -2.17 4.47
 -1 -29 24 11.25 5.37
 29 1 -24 -2.1 4.39
 29 -3 -24 5.59 4.5
 3 -29 24 6.33 5.59
 29 3 -24 7.43 4.32
 -3 -29 24 1.25 5.43
 5 -29 24 3.53 5.39
 29 -5 -24 3.15 4.63
 29 5 -24 -4.55 4.29
 -5 -29 24 -7.79 5.23
 1 0 -25 9.31 3.81
 0 -1 -25 1.74 3.84
 0 1 -25 0.99 3.73
 1 2 -25 7.27 3.93
 2 -1 -25 2.12 3.8
 -1 -2 -25 3.79 3.33
 1 -2 -25 2.49 3.79
 2 1 -25 2.66 4.24
 0 3 -25 21 3.76
 0 -3 25 19.72 4.05
 3 0 -25 10.69 3.99
 2 -3 25 6.46 4.05
 3 -2 -25 1.63 4.08
 2 3 -25 9.08 3.89
 -2 -3 25 4.3 4.02
 2 -3 -25 3.63 3.67
 3 2 -25 10.22 3.66
 1 -4 25 -0.82 4.16
 1 4 -25 0.55 3.45
 4 -1 -25 -0.16 4.15
 -1 -4 25 3.64 4.22
 4 1 -25 4.8 3.97
 4 -3 -25 4.04 3.64
 -4 -3 25 2.07 4.19
 3 -4 25 -0.38 3.83
 3 4 -25 -0.1 3.63
 -3 -4 25 -1.73 4.06
 4 3 -25 4.48 4
 5 0 -25 28.06 4.28
 0 -5 25 29.73 4.16
 2 -5 25 17 4.05
 5 -2 -25 28.01 4.69
 2 5 -25 17.38 3.95
 -5 -2 25 25.62 4.2
 -2 -5 25 24.57 4.55
 5 2 -25 14.27 4.16
 4 5 -25 1.87 3.71
 5 -4 25 0.51 3.61
 -4 -5 25 -9.82 4.37
 5 4 -25 -3.65 4.16
 1 -6 25 4.42 4.04
 1 6 -25 5.26 4.29
 6 -1 -25 5.6 3.85
 -6 -1 -25 8.13 2.97
 3 6 -25 0.46 3.96
 3 -6 25 -6.35 3.83
 6 -3 -25 2.35 3.81
 -6 -3 25 5.87 4.14
 6 3 -25 0.17 3.65
 5 -6 25 -6.48 3.68
 5 6 -25 2.98 4.04
 6 -5 25 1.64 3.53
 6 5 -25 1.16 4.12
 -5 -6 25 -4.59 4.09
 7 0 -25 1.17 4.42
 -7 0 -25 3.61 2.99
 0 -7 25 -2.05 4.11
 -7 -2 25 -0.38 4.14
 2 -7 25 5.86 4.22
 2 7 -25 3.14 3.75
 -7 2 -25 -1.28 3.08
 7 -2 -25 9.65 4.61
 -2 -7 25 -3 4.32
 7 2 -25 1.02 3.97
 -7 -4 25 -2.28 3.9
 4 7 -25 1.23 4.13
 4 -7 25 6.36 3.93
 7 -4 -25 8.72 4.12
 7 4 -25 6.6 3.93
 -4 -7 25 4.56 4.13
 6 7 -25 8.93 4.25
 6 -7 25 7.95 3.61
 -6 -7 25 9.68 4.45
 7 -6 25 4.97 3.52
 8 -1 -25 0.06 3.73
 1 8 -25 -1.22 3.95
 -8 1 -25 -3.83 2.96
 -8 -1 -25 3.19 2.98
 -1 -8 25 -2.52 4.21
 8 1 -25 1.2 3.68
 3 -8 25 -0.18 4.17
 -8 3 -25 3.25 3.04
 3 8 -25 5.51 4.21
 -8 -3 25 1.86 4.33
 8 -3 -25 1.92 4.05
 -3 -8 25 5.83 4.1
 8 3 -25 1.43 3.81
 5 -8 25 5.23 3.83
 5 8 -25 11.28 3.98
 -8 -5 25 -2.82 3.94
 8 5 -25 4.52 3.91
 -5 -8 25 9.51 4.43
 7 -8 25 -5.7 3.62
 7 8 -25 6.11 4.05
 -8 -7 25 0.51 4.28
 8 7 -25 2.47 4.18
 8 -7 25 1.91 3.47
 -7 -8 25 1.1 4.65
 -9 0 -25 31.71 3.2
 0 -9 25 23.47 4.5
 9 0 -25 38.41 4.47
 -9 2 -25 15.79 3
 9 -2 -25 16.43 4.32
 2 -9 25 15.82 4.31
 2 9 -25 18.92 4.28
 9 2 -25 16.76 4.12
 -2 -9 25 15.02 4.36
 4 9 -25 12.78 4.61
 9 -4 -25 4.46 4.03
 -9 4 -25 -0.49 3.09
 9 4 -25 6.68 3.72
 -4 -9 25 3.84 4.46
 -9 -6 25 -5.16 4.14
 6 -9 25 4.68 3.96
 -6 -9 25 -0.78 4.9
 9 6 -25 3.49 4.02
 8 -9 25 11.19 3.7
 8 9 -25 9.33 4.29
 -9 -8 25 2.87 4.41
 9 8 -25 8.22 4.13
 9 -8 25 9.24 3.35
 1 -10 25 -1.46 4.23
 10 -1 -25 1.46 3.87
 1 10 -25 -3.92 4.18
 -10 1 -25 -2.92 2.82
 -10 -1 -25 0.8 2.71
 10 1 -25 -4.35 4.04
 -1 -10 25 -0.16 4.51
 -10 -3 25 3.78 3.98
 3 -10 25 7.62 4.37
 3 10 -25 6 4.17
 10 -3 -25 4.32 4.37
 10 3 -25 -3.17 4.08
 -3 -10 25 -1.37 4.28
 5 10 -25 -3.91 4.47
 10 -5 -25 0.33 4.26
 -10 5 -25 0.07 3.01
 5 -10 25 -0.53 4.03
 -10 -5 25 -6.55 3.95
 10 5 -25 -0.71 3.72
 -5 -10 25 -4.56 4.47
 7 -10 25 -2.3 3.97
 7 10 -25 0.03 4.48
 -10 -7 25 -0.41 4.18
 10 7 -25 2.65 4.21
 -7 -10 25 5.87 4.46
 10 -7 25 6.16 3.19
 9 10 -25 -1.05 4.46
 -10 -9 25 3.3 4.06
 9 -10 25 -3.32 3.59
 10 9 -25 11.56 4.61
 10 -9 25 4.24 3.39
 11 0 -25 9.19 4.25
 -11 0 -25 10.74 2.74
 0 -11 25 1.5 4.3
 -11 2 -25 -0.04 2.71
 2 11 -25 4.6 4.39
 11 -2 -25 4.73 3.91
 2 -11 25 5.28 4.3
 11 2 -25 -1.58 3.81
 -2 -11 25 4.02 4.53
 -11 -2 -25 -0.83 2.64
 -11 -4 25 -6.25 4.47
 -11 4 -25 2.45 2.89
 4 -11 25 4.11 4.24
 11 -4 -25 -2.35 4.17
 4 11 -25 5.52 4.34
 -4 -11 25 6.17 4.26
 11 4 -25 1.33 4.06
 6 11 -25 4.82 4.63
 6 -11 25 0.63 4.1
 11 -6 -25 1.91 3.91
 -6 -11 25 5.8 4.15
 11 6 -25 -6.23 4.14
 8 -11 25 -2.54 4.03
 -11 -8 25 -3.46 4.08
 8 11 -25 7.7 4.55
 11 -8 25 -2.61 3.12
 -8 -11 25 -1.61 4.37
 11 8 -25 -7.43 4.3
 10 -11 25 -1.86 3.68
 -11 -10 25 -7.92 4.88
 10 11 -25 1.57 4.64
 11 10 -25 6.51 4.79
 -10 -11 25 -2.05 4.62
 11 -10 25 3.38 3.37
 1 -12 25 1.29 4.59
 -12 1 -25 -3.27 2.57
 12 -1 -25 -3.53 3.96
 -12 -1 -25 3.65 2.67
 -1 -12 25 3.87 4.27
 12 1 -25 0.2 4.21
 -12 -3 25 -0.01 3.8
 3 -12 25 -4.44 4.43
 12 3 -25 -5.42 3.69
 -3 -12 25 -0.73 4.63
 -12 -5 25 -5.78 4.06
 5 -12 25 0.47 4.17
 12 -5 -25 -2.11 4.16
 -5 -12 25 -6.72 4.57
 12 5 -25 -8.71 3.99
 7 12 -25 -1.49 4.79
 7 -12 25 3.35 4.14
 -12 -7 25 4.56 4.05
 12 7 -25 1.5 4.15
 -7 -12 25 9.95 4.37
 9 12 -25 5.78 5.26
 -12 -9 25 -1.42 4.47
 9 -12 25 -7.21 3.91
 12 -9 25 -3.16 3.19
 12 9 -25 9.98 4.2
 -9 -12 25 -6.1 4.21
 11 -12 25 1.87 3.71
 -12 -11 25 -4.36 4.61
 11 12 -25 12.8 4.94
 12 -11 25 0.74 3.37
 -11 -12 25 3.72 4.54
 12 11 -25 11.62 4.87
 0 -13 25 21.79 4.76
 13 0 -25 26.64 4.6
 13 -2 -25 12.94 4.28
 2 -13 25 11.78 4.66
 -2 -13 25 7.93 4.74
 13 2 -25 16.06 4.08
 -13 -2 -25 10.13 2.62
 4 -13 25 -5.01 4.56
 -13 -4 25 7.95 4.38
 13 -4 -25 2.64 4.33
 -4 -13 25 -6.16 4.46
 13 4 -25 2.85 4.02
 13 -6 -25 0 3.98
 6 -13 25 0.14 4.17
 -13 -6 25 -9.25 4.12
 -6 -13 25 -5.9 4.6
 13 6 -25 1.85 4.17
 -13 -8 25 8.18 4.52
 8 -13 25 -3.82 4
 13 8 -25 5.18 4.57
 -8 -13 25 4.63 4.44
 -13 -10 25 0.78 4.24
 10 -13 25 -3.08 3.89
 13 10 -25 3.58 4.53
 -10 -13 25 -9.34 4.48
 13 -10 25 -3.84 3.11
 12 -13 25 4.05 3.7
 -13 -12 25 5.18 4.91
 -12 -13 25 -3.39 4.51
 13 -12 25 5.22 3.46
 14 -1 -25 2.08 4.2
 1 -14 25 -6.92 4.65
 14 1 -25 -1.28 4.1
 -1 -14 25 -5.64 4.75
 3 -14 25 -3.01 4.68
 14 -3 -25 1.05 4.09
 -14 -3 25 -0.98 4.1
 14 3 -25 2.61 4.1
 -3 -14 25 -0.04 4.47
 14 -5 -25 5.14 4.08
 5 -14 25 -6.12 4.44
 -14 -5 25 6.32 4.48
 14 5 -25 -2.43 4.4
 -5 -14 25 -2.15 4.53
 -14 -7 25 7.37 4.72
 14 -7 -25 3.32 4.28
 7 -14 25 12.52 4.44
 14 7 -25 13.43 4.18
 -7 -14 25 7.33 4.98
 9 -14 25 -1.96 4.31
 -14 -9 25 -1.48 4.07
 -9 -14 25 -0.66 4.26
 14 9 -25 -7.39 4.45
 11 -14 25 -1.45 3.93
 -14 -11 25 8.48 4.34
 14 11 -25 -0.43 4.78
 -11 -14 25 -3.9 4.88
 14 -11 25 -0.01 3.06
 -14 -13 25 2.2 4.85
 13 -14 25 2 3.69
 -13 -14 25 0.68 4.44
 14 -13 25 4.14 3.53
 0 -15 25 12.85 5.21
 2 -15 25 -0.97 4.61
 15 -2 -25 3.67 4.09
 15 2 -25 3.46 4.11
 -2 -15 25 5.9 4.71
 15 -4 -25 -9.24 4.07
 -15 -4 25 -2.62 4
 4 -15 25 -3.47 4.65
 -4 -15 25 -1.93 4.58
 15 4 -25 -0.25 4.27
 6 -15 25 0.83 4.59
 -15 -6 25 1.32 4.3
 15 -6 -25 2.94 4.19
 15 6 -25 0.92 4.05
 -6 -15 25 -0.22 4.71
 -15 -8 25 -3.08 4.26
 15 -8 -25 -2.61 3.93
 8 -15 25 1.64 4.52
 15 8 -25 -5.54 4.47
 -8 -15 25 2.61 4.75
 -15 -10 25 -0.51 4.53
 10 -15 25 5.9 4.19
 -10 -15 25 -3.27 4.47
 15 10 -25 1.45 4.77
 -15 -12 25 2.77 4.42
 12 -15 25 -1.9 4.01
 15 -12 25 -3.18 3.11
 -12 -15 25 -1.18 4.41
 14 -15 25 -5.5 3.78
 -14 -15 25 -0.58 4.83
 16 -1 -25 -1.8 4.11
 1 -16 25 -4.49 4.92
 -1 -16 25 -5 5.12
 16 1 -25 -2.47 4.08
 16 -3 -25 -2.84 4.3
 3 -16 25 6.22 4.89
 16 3 -25 -3.16 4.26
 -3 -16 25 8.33 4.9
 5 -16 25 5.06 4.73
 16 -5 -25 -2.27 4.07
 -16 -5 25 0.54 4.12
 -5 -16 25 -9.33 5.18
 16 5 -25 4.88 4.09
 7 -16 25 0.18 4.65
 -16 -7 25 -3.48 4.35
 16 -7 -25 3.44 4.19
 16 7 -25 9.74 4.5
 -7 -16 25 8.25 4.8
 9 -16 25 3.09 4.52
 16 -9 -25 12.8 4.15
 16 9 -25 -4.98 4.71
 -9 -16 25 2.47 4.34
 -16 -11 25 -1.99 4.42
 11 -16 25 0.32 4.23
 16 11 -25 -1.35 5.18
 -11 -16 25 3.06 4.86
 -16 -13 25 3.66 4.95
 13 -16 25 4.89 4.08
 -13 -16 25 1.42 5.09
 -16 -15 25 1.95 4.87
 15 -16 25 -0.94 3.74
 -15 -16 25 3.89 4.94
 17 0 -25 24.33 4.19
 0 -17 25 23.82 5.15
 2 -17 25 21.11 5.04
 17 -2 -25 24.1 4.5
 17 2 -25 16.3 4.25
 -2 -17 25 11.55 5.23
 -17 -4 25 15.04 4.62
 17 -4 -25 4.85 4.05
 4 -17 25 6.89 4.97
 17 4 -25 13.24 4.2
 -4 -17 25 6.99 5.22
 17 -6 -25 6.91 4.11
 -17 -6 25 -1.45 4.79
 6 -17 25 0.29 4.87
 17 6 -25 6.17 4.26
 -6 -17 25 3.04 4.88
 17 -8 -25 -5.51 4.28
 8 -17 25 0.39 4.62
 -17 -8 25 -6.81 4.47
 -8 -17 25 2.26 4.7
 17 8 -25 5.22 4.5
 17 -10 -25 1.52 4.28
 -17 -10 25 2.57 4.67
 10 -17 25 -7.72 4.53
 -10 -17 25 7.93 4.95
 17 10 -25 2.98 4.88
 12 -17 25 -2.51 4.26
 -17 -12 25 2.81 4.54
 -12 -17 25 6.09 5.06
 -17 -14 25 3.32 4.59
 14 -17 25 3.61 4.08
 -14 -17 25 -4.9 4.46
 -17 -16 25 2.93 5.14
 16 -17 25 -3.31 3.6
 -16 -17 25 3.39 4.54
 18 -1 -25 6.36 4.54
 1 -18 25 -2.1 5.43
 18 1 -25 -0.22 4
 -1 -18 25 -1.29 4.93
 3 -18 25 6.27 5.05
 18 -3 -25 6.81 4.3
 18 3 -25 5.79 4.51
 -3 -18 25 -4.63 4.72
 18 -5 -25 6.43 4.22
 -18 -5 25 -0.02 4.48
 5 -18 25 -1.19 5.03
 -5 -18 25 9.15 4.88
 18 5 -25 -2.26 4.28
 7 -18 25 13.47 5.01
 -18 -7 25 5.37 4.22
 18 -7 -25 4.67 4.19
 -7 -18 25 6.01 5.47
 18 7 -25 8.42 4.22
 18 -9 -25 -5.44 4.57
 9 -18 25 12.58 4.77
 -18 -9 25 0.01 4.87
 18 9 -25 5.97 4.48
 -9 -18 25 5.7 4.72
 11 -18 25 5.71 4.57
 -18 -11 25 -0.76 4.53
 -11 -18 25 8.33 5.29
 18 11 -25 0.94 5.1
 13 -18 25 4.3 4.35
 -18 -13 25 3.73 5.11
 -13 -18 25 -0.5 4.75
 15 -18 25 3.42 4.06
 -18 -15 25 3.58 4.89
 -15 -18 25 -0.15 4.44
 -18 -17 25 -0.77 4.85
 -17 -18 25 -4.55 4.48
 0 -19 25 3.4 5.26
 19 0 -25 -4.91 4.31
 2 -19 25 8.7 5.13
 19 -2 -25 3.33 4.39
 -2 -19 25 -3.47 5.39
 19 2 -25 -5.76 4.13
 4 -19 25 0.33 5.17
 19 -4 -25 -2.44 4.27
 -4 -19 25 -5.86 5.26
 19 4 -25 -3.96 4.21
 -19 -6 25 -1.78 4.43
 6 -19 25 0.42 5.04
 -6 -19 25 -3.25 4.89
 19 6 -25 -2.07 4.38
 19 -8 -25 -3.91 4.38
 -19 -8 25 -1.78 4.53
 8 -19 25 -2.95 5.01
 -8 -19 25 4.8 5.01
 19 8 -25 6.92 4.6
 10 -19 25 6.4 4.77
 -19 -10 25 6.02 4.76
 19 -10 -25 5.44 4.38
 19 10 -25 8.26 4.68
 -10 -19 25 -6.16 5.22
 12 -19 25 7.55 4.57
 -19 -12 25 6.47 4.85
 -12 -19 25 4.19 5.18
 14 -19 25 -1.94 4.41
 -19 -14 25 0.36 4.63
 -14 -19 25 0.63 4.5
 -19 -16 25 2.6 5.35
 16 -19 25 1.28 4.04
 -16 -19 25 0.09 4.45
 -19 -18 25 -4.18 4.81
 -18 -19 25 5.62 4.6
 20 -1 -25 4.18 4.2
 1 -20 25 -5.3 5.55
 -1 -20 25 1.99 5.61
 20 1 -25 5.18 4.35
 3 -20 25 -8.74 5.15
 20 -3 -25 -0.23 4.33
 -3 -20 25 -1.79 5.27
 20 3 -25 10.53 4.39
 20 -5 -25 -0.27 4.26
 -20 -5 25 2.81 4.5
 5 -20 25 7.37 5.26
 20 5 -25 2.9 4.28
 20 -7 -25 6.85 4.42
 -20 -7 25 3.49 4.46
 7 -20 25 0.13 5.18
 -7 -20 25 2.6 5.28
 20 7 -25 2.07 4.64
 -20 -9 25 -2.74 4.7
 20 -9 -25 -2.69 4.31
 9 -20 25 5.71 4.92
 20 9 -25 2.87 4.75
 -9 -20 25 -1.83 4.68
 11 -20 25 7.49 4.92
 -20 -11 25 1.27 4.67
 20 -11 -25 -4.8 4.48
 -11 -20 25 -4.4 5.09
 -20 -13 25 -1.05 4.89
 13 -20 25 8.05 4.67
 -13 -20 25 4.16 5.14
 15 -20 25 6.72 4.41
 -20 -15 25 3.93 4.72
 -15 -20 25 1.24 4.74
 -20 -17 25 -1.86 5.3
 17 -20 25 1.77 4.93
 -17 -20 25 -2.26 4.55
 -20 -19 25 -3.39 5.01
 -19 -20 25 0.31 4.92
 21 0 -25 -1.93 4.14
 0 -21 25 -3.11 5.29
 2 -21 25 4.83 5.67
 21 -2 -25 -5.37 4.25
 -2 -21 25 5.45 5.23
 21 2 -25 3.29 4.28
 4 -21 25 6.75 5.37
 21 4 -25 6.17 4.31
 -4 -21 25 1.89 5.19
 21 -6 -25 -0.89 4.41
 -21 -6 25 5.65 4.65
 6 -21 25 -4.66 5.19
 21 6 -25 -0.03 4.29
 -6 -21 25 -7.41 5.26
 -21 -8 25 4.13 4.52
 8 -21 25 3.56 5.06
 21 -8 -25 -0.7 4.42
 21 8 -25 2.52 4.47
 21 -10 -25 -3.52 4.48
 10 -21 25 5.42 4.96
 -21 -10 25 2.41 4.7
 -10 -21 25 2.46 4.74
 -21 -12 25 -2.6 5.34
 21 -12 -25 -8.13 4.66
 12 -21 25 0.01 4.71
 -12 -21 25 1.85 5.09
 -21 -14 25 5.65 5.33
 14 -21 25 3.87 4.67
 -14 -21 25 10.67 5.23
 -21 -16 25 0.03 4.99
 16 -21 25 5.19 4.3
 -21 -18 25 11.27 5.43
 -21 -20 25 2.73 5.25
 -20 -21 25 1.81 5.1
 1 -22 25 -8.08 5.54
 22 -1 -25 0.28 4.31
 -1 -22 25 3.76 5.17
 22 -3 -25 4.12 4.45
 -3 -22 25 2.38 5.08
 22 3 -25 7.22 4.4
 5 -22 25 9.24 5.6
 22 -5 -25 2.45 4.41
 22 5 -25 1.26 4.29
 -5 -22 25 0.22 5.06
 -22 -7 25 4.4 4.56
 22 -7 -25 3.29 4.35
 -7 -22 25 3.28 5.34
 22 7 -25 1.24 4.48
 -22 -9 25 -1.07 4.66
 22 -9 -25 -3.4 4.31
 9 -22 25 -5.74 5.06
 -9 -22 25 -0.67 5.48
 22 9 -25 -7.91 4.6
 -22 -11 25 -0.52 5.23
 11 -22 25 2.42 4.89
 22 -11 -25 1.83 4.42
 -11 -22 25 -4.01 4.93
 22 -13 -25 -0.47 4.59
 13 -22 25 -10.43 4.7
 -13 -22 25 -6.67 4.44
 -22 -15 25 -7.39 4.83
 15 -22 25 10.12 4.63
 -15 -22 25 1.85 4.85
 -22 -17 25 -3.61 5.01
 -17 -22 25 7.48 4.92
 -22 -19 25 5.67 5.13
 -19 -22 25 -5.84 4.75
 0 -23 25 0.04 5.45
 23 0 -25 -2.51 4.38
 2 -23 25 -6.32 5.91
 23 -2 -25 3.67 4.3
 23 2 -25 8.44 4.4
 -2 -23 25 -1.3 5.2
 4 -23 25 -7.64 5.39
 23 -4 -25 3.45 4.47
 23 4 -25 -4.4 4.41
 -4 -23 25 1.83 5.25
 -23 -6 25 -3.97 4.94
 6 -23 25 -2.53 5.43
 23 -6 -25 -0.86 4.55
 -6 -23 25 1.03 5.08
 23 6 -25 3.07 4.54
 -23 -8 25 -0.18 4.65
 23 -8 -25 2.36 4.39
 8 -23 25 1.27 5.35
 23 8 -25 2.08 4.65
 -8 -23 25 -7.27 5.73
 23 -10 -25 -3.34 4.45
 10 -23 25 0.98 5.14
 -23 -10 25 1.94 5.14
 -10 -23 25 -4.35 4.79
 23 -12 -25 -7.93 4.37
 -23 -12 25 9.59 5.04
 12 -23 25 3.19 4.96
 -12 -23 25 0.21 5.44
 23 -14 -25 -3.16 4.62
 14 -23 25 -3.93 4.72
 -23 -14 25 3.45 5.06
 -14 -23 25 -0.55 4.65
 16 -23 25 5.45 4.58
 -23 -16 25 4.36 4.75
 -16 -23 25 5.51 4.33
 -23 -18 25 -8.94 4.9
 -18 -23 25 1.93 4.22
 1 -24 25 -2.58 5.76
 24 -1 -25 0.06 4.48
 -1 -24 25 -3.67 5.36
 24 1 -25 0.28 4.46
 24 -3 -25 4.11 4.34
 3 -24 25 -10.12 5.42
 -3 -24 25 -0.03 5.3
 24 3 -25 1.38 4.3
 24 -5 -25 7.13 4.7
 5 -24 25 -0.3 5.74
 24 5 -25 0.9 4.43
 -5 -24 25 3.56 5.19
 -24 -7 25 9.01 5.14
 7 -24 25 4.94 5.64
 24 -7 -25 6.65 4.56
 -7 -24 25 7.66 5.31
 24 7 -25 11.7 4.57
 9 -24 25 -5.67 5.1
 24 -9 -25 11.04 4.44
 -24 -9 25 -9.16 5.15
 -9 -24 25 3.36 5.56
 24 -11 -25 -5.6 4.45
 11 -24 25 5.51 5.1
 -24 -11 25 1.8 5.03
 -11 -24 25 3.62 4.74
 -24 -13 25 1.4 5.47
 24 -13 -25 3.56 4.35
 13 -24 25 0.58 4.98
 -13 -24 25 -4.86 4.87
 15 -24 25 4.25 4.68
 24 -15 -25 1.53 4.71
 -24 -15 25 -10.01 5.2
 -15 -24 25 0.55 5.05
 25 0 -25 -1.32 4.32
 0 -25 25 5.59 5.84
 25 -2 -25 1.52 4.43
 2 -25 25 -2.56 5.64
 -2 -25 25 4.2 5.41
 25 2 -25 1.73 4.32
 4 -25 25 -3.35 5.66
 25 -4 -25 2.86 4.6
 25 4 -25 7.32 4.37
 -4 -25 25 2.07 5.3
 6 -25 25 7.38 5.43
 -6 -25 25 -0.91 5.27
 25 6 -25 0.7 4.34
 -25 -8 25 -1.05 4.95
 8 -25 25 -1.79 5.28
 25 -8 -25 -1.17 4.51
 25 8 -25 0.7 4.67
 -8 -25 25 1.89 5.68
 -25 -10 25 -2.54 4.89
 10 -25 25 -1.39 5.26
 25 -10 -25 -0.89 4.5
 -10 -25 25 4.09 4.71
 25 -12 -25 7.52 4.5
 -25 -12 25 3.33 5.15
 12 -25 25 0.52 4.97
 -12 -25 25 2.17 5.4
 -25 -14 25 -1.31 5.1
 25 -14 -25 -3.4 4.47
 14 -25 25 -2.92 4.87
 -14 -25 25 -0.88 4.49
 26 -1 -25 1.94 4.47
 1 -26 25 1.19 5.67
 26 1 -25 4.04 4.43
 -1 -26 25 8.41 6.05
 26 -3 -25 -2.28 4.45
 3 -26 25 -2.07 5.53
 26 3 -25 1.92 4.3
 -3 -26 25 -9.25 5.59
 26 -5 -25 -7.11 4.6
 5 -26 25 0.58 5.41
 -5 -26 25 9.31 5.71
 26 5 -25 1.34 4.28
 7 -26 25 2.49 5.41
 26 -7 -25 2.16 4.62
 26 7 -25 6.65 4.63
 -7 -26 25 -4.08 5.68
 9 -26 25 2.36 5.24
 26 -9 -25 -5.94 4.66
 -26 -9 25 1.65 4.8
 -9 -26 25 5.71 5.05
 -26 -11 25 0.3 4.87
 11 -26 25 -0.02 5.08
 26 -11 -25 3.72 4.52
 -11 -26 25 0.3 5.08
 -26 -13 25 1.39 4.94
 26 -13 -25 -0.63 4.58
 13 -26 25 -3.24 4.9
 27 0 -25 4.09 4.5
 0 -27 25 -5.32 5.48
 2 -27 25 2.37 5.55
 27 -2 -25 8.97 4.57
 -2 -27 25 1.71 5.82
 27 2 -25 9.57 4.51
 4 -27 25 4.02 5.5
 27 -4 -25 -2.23 4.55
 -4 -27 25 -3.09 5.79
 27 4 -25 -3.22 4.44
 6 -27 25 4.99 5.48
 27 -6 -25 -3.06 4.62
 27 6 -25 -4.2 4.45
 -6 -27 25 -0.4 5.57
 8 -27 25 -1.5 5.22
 27 -8 -25 6.65 4.68
 -8 -27 25 13.91 4.99
 27 -10 -25 -0.66 4.72
 10 -27 25 0.51 5.18
 -27 -10 25 -1.37 4.84
 -10 -27 25 4.13 5.05
 28 -1 -25 -4.21 4.54
 1 -28 25 -0.02 5.74
 28 1 -25 5.79 4.34
 -1 -28 25 6.23 5.25
 28 -3 -25 0.6 4.6
 3 -28 25 11.27 5.44
 28 3 -25 9.45 4.63
 -3 -28 25 5.74 5.22
 5 -28 25 -4 5.49
 28 -5 -25 2.34 4.61
 -5 -28 25 -0.97 5.1
 28 5 -25 0.43 4.21
 28 -7 -25 -2.03 4.62
 7 -28 25 -2.97 5.46
 -7 -28 25 2.96 4.74
 29 0 -25 10.05 4.37
 0 -29 25 7.42 5.61
 2 -29 25 0.67 5.22
 29 -2 -25 8.37 4.6
 -2 -29 25 2.29 5.51
 29 2 -25 2.5 4.44
 0 0 -26 -3.36 3.79
 1 1 -26 5.15 3.78
 -1 -1 -26 -2.22 3.38
 1 -1 -26 0.47 3.55
 0 -2 -26 3.17 3.97
 2 0 -26 0.59 4.3
 0 2 -26 8.01 3.89
 2 2 -26 0.13 3.93
 2 -2 -26 -6.57 4
 3 -1 -26 27.5 4.07
 1 3 -26 28.91 3.96
 1 -3 26 29.4 4.49
 3 1 -26 18.2 3.8
 -1 -3 26 24.77 4.24
 1 -3 -26 26.43 3.92
 -3 -3 26 310.13 12.66
 3 -3 -26 292.14 12.55
 3 3 -26 283.4 12.71
 0 -4 26 26.65 4.31
 0 4 -26 39.09 3.85
 4 0 -26 36.14 4.37
 4 -2 -26 15.38 4.09
 2 4 -26 21.34 3.84
 -2 -4 26 15.64 4.08
 4 2 -26 27.6 4.46
 4 4 -26 2.03 3.64
 4 -4 26 1.42 3.69
 -4 -4 26 4.68 4.1
 1 -5 26 23.95 4.2
 -5 1 -26 19.01 3.41
 5 -1 -26 16.24 4.3
 1 5 -26 25.76 3.83
 -1 -5 26 20.46 4.29
 5 1 -26 23.38 3.87
 3 -5 26 143.85 7.93
 -5 -3 26 153.04 8.05
 5 -3 -26 146.12 8.17
 3 5 -26 140.24 7.84
 5 3 -26 142.29 7.98
 -3 -5 26 137.06 8.18
 -5 -5 26 77.65 5.66
 5 5 -26 91.63 6.81
 5 -5 26 76.43 6.15
 6 0 -26 200.54 9.86
 -6 0 -26 215.48 9.27
 0 -6 26 213.98 9.89
 2 -6 26 259.21 11.06
 2 6 -26 242.68 11.15
 6 -2 -26 244.96 11.49
 -6 -2 -26 260.69 10.55
 -2 -6 26 255.32 11.28
 6 2 -26 249.21 11.28
 4 6 -26 218.58 10.76
 4 -6 26 236.38 10.6
 6 -4 -26 231.1 10.79
 -6 -4 26 249.52 10.8
 -4 -6 26 244.47 10.81
 6 4 -26 241.58 10.61
 6 6 -26 -4.13 4.16
 6 -6 26 3.48 3.6
 -6 -6 26 -3.4 4.19
 1 -7 26 88.46 6.5
 7 -1 -26 79.7 5.56
 -7 1 -26 78.37 5.63
 1 7 -26 85.34 6.8
 -7 -1 -26 82.59 5.61
 7 1 -26 80.68 5.39
 -1 -7 26 79.87 6.61
 -7 3 -26 312.41 12.62
 -7 -3 26 317.73 13.22
 7 -3 -26 303.31 13.3
 3 7 -26 312.04 13.16
 3 -7 26 326.35 12.98
 -3 -7 26 315.5 13.29
 7 3 -26 301.37 13.2
 5 7 -26 253.19 11.55
 5 -7 26 266.09 11.13
 -7 -5 26 233.49 11.36
 7 5 -26 258.05 11.4
 7 -5 26 266.28 10.92
 -7 -7 26 349.84 14.46
 7 7 -26 339.66 14.37
 7 -7 26 350.77 14.03
 8 0 -26 83.82 6.94
 0 -8 26 96.01 6.91
 -8 0 -26 103.27 5.71
 2 8 -26 48.12 4.71
 -8 2 -26 52.62 3.75
 2 -8 26 54.21 4.88
 8 2 -26 51.98 5.06
 -2 -8 26 43.51 4.71
 -8 -2 -26 46.26 3.58
 4 8 -26 7.18 4.27
 4 -8 26 9.66 4.08
 8 -4 -26 3.86 4.46
 -8 4 -26 2.92 3.14
 -8 -4 26 0.91 4.06
 -4 -8 26 5.28 4.64
 8 4 -26 5.86 4.31
 -8 -6 26 88.93 6.92
 6 8 -26 82.33 6.69
 6 -8 26 81.41 6.19
 8 -6 26 70.85 5.81
 8 6 -26 84.37 6.6
 8 8 -26 2.8 4.55
 8 -8 26 7.24 3.47
 -8 -8 26 3.9 4.14
 -9 1 -26 41.2 3.45
 9 -1 -26 36.63 4.52
 1 9 -26 40.77 4.53
 1 -9 26 50.73 5
 -1 -9 26 45.48 4.95
 -9 -1 -26 44.58 3.42
 -9 -3 26 214.39 10.06
 3 -9 26 210.56 10.11
 3 9 -26 226.08 9.95
 9 -3 -26 199.16 10
 -9 3 -26 214.46 9.13
 9 3 -26 206.96 9.82
 -3 -9 26 198.85 10.09
 -9 -5 26 204.16 10.05
 9 -5 -26 202.89 9.85
 -9 5 -26 214.54 9.15
 5 9 -26 194.93 9.95
 5 -9 26 217.57 9.75
 -5 -9 26 212.24 10.1
 9 5 -26 207.57 9.8
 7 -9 26 328.02 13.36
 -9 -7 26 321.51 13.63
 7 9 -26 312.82 13.62
 -7 -9 26 315.43 13.74
 9 -7 26 334.93 13
 9 7 -26 314.41 13.53
 -9 -9 26 251.51 11.72
 9 -9 26 264.01 10.99
 9 9 -26 257.29 11.52
 -10 0 -26 26.99 3.04
 0 -10 26 16.85 4.51
 10 0 -26 13.78 4.33
 2 -10 26 42.61 4.71
 2 10 -26 25.16 4.41
 -10 2 -26 40.34 3.22
 10 -2 -26 28.24 4.26
 -2 -10 26 25.37 4.57
 -10 -2 -26 40.66 3.16
 -10 4 -26 86.24 5.37
 -10 -4 26 80.77 6.72
 10 -4 -26 76.14 5.25
 4 10 -26 71.58 5.39
 10 4 -26 87.41 6.56
 -4 -10 26 90.94 7.17
 -10 -6 26 10.66 4.21
 6 -10 26 2.94 4.13
 6 10 -26 11.66 4.6
 -6 -10 26 12.65 5.01
 10 6 -26 9.63 4.16
 -10 -8 26 38.57 4.7
 8 -10 26 33.81 4.16
 -8 -10 26 44.33 5.07
 10 8 -26 32.99 4.45
 10 -8 26 43.68 3.73
 -10 -10 26 5.25 4.42
 10 10 -26 12.09 4.79
 11 -1 -26 40.69 4.75
 1 11 -26 46.36 4.86
 -11 1 -26 48.45 3.48
 -11 -1 -26 46.87 3.44
 11 1 -26 52.54 4.71
 -1 -11 26 60.49 5.29
 3 -11 26 350.93 14.44
 -11 -3 26 346.26 14.4
 -11 3 -26 353.26 13.69
 3 11 -26 352.2 14.56
 11 -3 -26 341.1 14.43
 -3 -11 26 341.84 14.71
 11 3 -26 343.18 14.48
 11 -5 -26 290.39 12.75
 5 -11 26 293.02 12.68
 -11 -5 26 299.12 12.78
 -11 5 -26 305.35 11.93
 5 11 -26 292.73 12.91
 11 5 -26 308.25 12.69
 -5 -11 26 278.93 13.04
 7 11 -26 370.47 15.83
 -11 -7 26 378.56 15.75
 7 -11 26 377.74 15.53
 11 7 -26 382.4 15.64
 11 -7 26 404.05 15.08
 -7 -11 26 376.51 16.01
 9 11 -26 279.83 12.32
 -11 -9 26 272.43 12.11
 9 -11 26 262.74 11.64
 11 -9 26 278.73 11.27
 11 9 -26 275.88 12.25
 -9 -11 26 259.66 12.27
 11 -11 26 359.44 14.44
 11 11 -26 362.56 15.06
 -11 -11 26 357.03 15.09
 0 -12 26 60.47 5.34
 12 0 -26 73.65 5.43
 2 -12 26 65.64 5.31
 -12 2 -26 74.03 4.73
 -2 -12 26 77.55 5.57
 12 2 -26 74.49 5.28
 4 -12 26 7.29 4.24
 12 -4 -26 8.57 4.46
 -12 -4 26 -0.13 4.14
 -12 4 -26 1.83 2.79
 -4 -12 26 6.94 4.85
 12 4 -26 1.91 4
 6 -12 26 23.93 4.37
 -12 -6 26 15.87 4.69
 6 12 -26 21.36 5.07
 -6 -12 26 20.56 4.88
 12 6 -26 15.7 4.24
 8 -12 26 0.51 4.13
 -12 -8 26 6.22 4.41
 8 12 -26 6.24 4.71
 -8 -12 26 6.3 4.58
 12 -8 26 2.97 3.29
 12 8 -26 12.62 4.41
 10 12 -26 19.36 4.72
 -12 -10 26 27.68 4.78
 10 -12 26 25.7 4.12
 12 -10 26 16.56 3.41
 12 10 -26 25.48 4.62
 -12 -12 26 -0.61 4.78
 12 -12 26 -2.47 3.67
 12 12 -26 -2.51 4.75
 13 -1 -26 0.64 4.3
 1 -13 26 8.08 4.54
 13 1 -26 7.17 4.39
 -13 -1 -26 4.3 2.57
 -1 -13 26 5.42 4.74
 3 -13 26 119.71 8.1
 -13 3 -26 120.03 5.87
 -13 -3 26 132.3 7.65
 13 -3 -26 124.6 7.62
 13 3 -26 124.93 7.44
 -3 -13 26 124.61 7.93
 5 -13 26 121.7 7.92
 13 -5 -26 136.65 8.17
 -13 -5 26 136.63 7.83
 13 5 -26 134.05 7.78
 -5 -13 26 117.68 8.12
 -13 -7 26 224.36 10.52
 7 -13 26 232.69 10.22
 13 -7 -26 211.37 10.43
 13 7 -26 218.56 10.24
 -7 -13 26 205.1 10.51
 -13 -9 26 124.58 8.28
 9 -13 26 151.45 7.77
 13 9 -26 152.18 8.3
 -9 -13 26 129.38 8.46
 13 -9 26 139.62 6.83
 11 -13 26 173.25 8.46
 -13 -11 26 175.16 9.28
 13 11 -26 175.31 9.61
 -11 -13 26 160.64 9.36
 13 -11 26 173.83 7.98
 -13 -13 26 61.24 5.56
 13 -13 26 70.9 4.63
 14 0 -26 -1.06 4.36
 0 -14 26 7.61 4.86
 14 -2 -26 -3.21 4.19
 2 -14 26 8.19 4.67
 14 2 -26 5.98 4.34
 -2 -14 26 0.11 4.47
 -14 -4 26 6.99 3.92
 14 -4 -26 8.83 4.26
 14 4 -26 17.35 4.17
 -4 -14 26 11.11 4.41
 -14 -6 26 4.01 4.26
 6 -14 26 16.22 4.6
 14 -6 -26 5.14 4.41
 14 6 -26 7.77 4.06
 -6 -14 26 3.51 4.36
 -14 -8 26 8.09 4.22
 14 -8 -26 5.28 4.04
 8 -14 26 11.42 4.32
 14 8 -26 15.16 4.8
 -8 -14 26 16.85 4.71
 10 -14 26 2.66 4.07
 -14 -10 26 -4.03 4.22
 14 -10 26 -4.97 2.96
 14 10 -26 1.42 4.66
 -10 -14 26 9.74 4.62
 12 -14 26 2.01 3.82
 -14 -12 26 7.22 4.54
 14 -12 26 4.02 3.29
 -12 -14 26 0.4 4.91
 14 12 -26 3.41 5.25
 -14 -14 26 4.55 4.42
 1 -15 26 14.5 4.76
 15 -1 -26 6.85 4.14
 -1 -15 26 15.86 4.73
 15 1 -26 5.48 4.32
 3 -15 26 143.26 8.24
 15 -3 -26 128.19 7.93
 15 3 -26 138.61 7.89
 -3 -15 26 141.95 8.77
 5 -15 26 149.28 8.65
 -15 -5 26 150.11 8.78
 15 -5 -26 144.15 8.65
 15 5 -26 162.85 8.75
 -5 -15 26 160.62 9.19
 -15 -7 26 165.28 9
 15 -7 -26 173.51 9.03
 7 -15 26 161.32 8.89
 -7 -15 26 153.29 9.06
 15 7 -26 164.81 8.7
 -15 -9 26 102.6 7.54
 9 -15 26 93.96 7.08
 -9 -15 26 108.3 7.78
 15 9 -26 114.1 7.56
 11 -15 26 110.34 7.32
 -15 -11 26 123.33 8.44
 -11 -15 26 122.09 8.24
 15 -11 26 117.37 6.14
 15 11 -26 135.1 8.13
 -15 -13 26 51.74 5.6
 13 -15 26 44.96 4.5
 15 -13 26 57.48 4.02
 -13 -15 26 52.04 5.33
 -15 -15 26 33.11 5.24
 15 -15 26 35.26 3.94
 0 -16 26 112.19 6.74
 16 0 -26 91.72 6.01
 16 -2 -26 86.5 6.84
 2 -16 26 75.61 5.94
 16 2 -26 87.64 6.65
 -2 -16 26 103.36 7.63
 -16 -4 26 50.53 4.84
 16 -4 -26 31.55 4.43
 4 -16 26 37.63 5.2
 16 4 -26 40.31 4.51
 -4 -16 26 40.8 5.06
 -16 -6 26 36.27 4.86
 16 -6 -26 28.33 4.51
 6 -16 26 31.21 4.95
 -6 -16 26 25.28 5.15
 16 6 -26 32.37 4.72
 -16 -8 26 14.14 4.82
 8 -16 26 28.69 4.7
 16 -8 -26 16.74 4.27
 16 8 -26 30.28 4.7
 -8 -16 26 24.98 5.27
 -16 -10 26 27.43 4.96
 10 -16 26 40.34 4.64
 -10 -16 26 22.7 4.57
 12 -16 26 15.57 4.24
 -16 -12 26 16.52 4.56
 -12 -16 26 12.93 5.01
 -16 -14 26 7.26 4.56
 14 -16 26 12.79 3.97
 16 -14 26 7.19 3.36
 -16 -16 26 -2.32 5.01
 16 -16 26 -3.48 3.6
 17 -1 -26 5.59 4.39
 1 -17 26 -1.35 4.69
 17 1 -26 6.12 4.06
 -1 -17 26 7.21 5.23
 17 -3 -26 -2.38 4.17
 3 -17 26 -4.01 4.98
 17 3 -26 2.82 4.21
 -3 -17 26 4.51 5.33
 17 -5 -26 -4.12 4.31
 5 -17 26 2.79 4.98
 -17 -5 26 -0.06 4.57
 17 5 -26 3.14 4.54
 -5 -17 26 3.91 5.27
 7 -17 26 10.73 4.81
 17 -7 -26 3.91 4.35
 -17 -7 26 0.49 4.33
 -7 -17 26 -6 4.91
 17 7 -26 -0.88 4.19
 -17 -9 26 1.06 4.7
 17 -9 -26 -7.72 4.31
 -9 -17 26 1.25 4.5
 17 9 -26 7.78 4.65
 -17 -11 26 7.17 4.61
 11 -17 26 -1.05 4.37
 -11 -17 26 3.91 4.97
 17 11 -26 3.9 5.11
 13 -17 26 -0.02 4.18
 -17 -13 26 -0.3 5.31
 -13 -17 26 10.79 5.01
 15 -17 26 5.06 3.85
 -17 -15 26 -4.07 4.92
 -15 -17 26 -3.89 4.56
 -17 -17 26 15.88 4.66
 0 -18 26 64.43 5.83
 18 0 -26 67.84 5.13
 2 -18 26 70.99 5.95
 18 -2 -26 52.87 4.93
 -2 -18 26 54 5.39
 4 -18 26 67.27 5.97
 18 -4 -26 59.85 5.07
 18 4 -26 60.41 5.12
 6 -18 26 44.22 5.38
 18 -6 -26 43.83 4.63
 -18 -6 26 24.67 4.56
 18 6 -26 33.02 4.43
 -6 -18 26 32.15 5
 8 -18 26 13.76 4.93
 18 -8 -26 14.5 4.4
 -18 -8 26 19.46 4.96
 -8 -18 26 23.78 5.19
 18 8 -26 24.77 4.46
 10 -18 26 0.2 4.61
 -18 -10 26 2.4 4.85
 18 -10 -26 3 4.39
 -10 -18 26 4.45 4.81
 18 10 -26 5.06 4.78
 -18 -12 26 -2.45 4.51
 12 -18 26 6.11 4.5
 -12 -18 26 -6.23 4.99
 -18 -14 26 3.74 4.46
 -14 -18 26 -6.78 4.53
 -18 -16 26 7.92 5.04
 16 -18 26 -0.25 3.79
 -16 -18 26 3.71 4.51
 -18 -18 26 -2.02 4.51
 1 -19 26 10.49 5.13
 19 -1 -26 -2.36 4.27
 -1 -19 26 -2.7 5.42
 19 1 -26 -1.32 4.13
 3 -19 26 -3.64 5.52
 19 -3 -26 -3.88 4.25
 -3 -19 26 2.82 5.48
 19 3 -26 -1.66 4.34
 5 -19 26 -2.52 5.17
 -19 -5 26 0.91 4.46
 19 -5 -26 -6.17 4.25
 19 5 -26 6.08 4.25
 -5 -19 26 4.36 5.5
 19 -7 -26 7.54 4.3
 7 -19 26 9.23 5.22
 -19 -7 26 12.06 4.7
 19 7 -26 9.61 4.43
 -7 -19 26 12.36 5.14
 -19 -9 26 15.58 5.12
 19 -9 -26 23.81 4.74
 9 -19 26 22.99 5.15
 19 9 -26 21.98 4.63
 -9 -19 26 15.79 4.82
 19 -11 -26 21.36 4.7
 -19 -11 26 10.77 4.76
 19 11 -26 20.6 5.17
 -11 -19 26 24.48 5.27
 13 -19 26 14.18 4.56
 -19 -13 26 6.18 5.11
 -13 -19 26 6.59 4.92
 15 -19 26 4.23 4.21
 -19 -15 26 4.92 4.94
 -15 -19 26 4.51 4.46
 -19 -17 26 3.16 4.8
 -17 -19 26 4.53 4.48
 -19 -19 26 5.88 4.58
 0 -20 26 5.03 5.57
 20 0 -26 -1.49 4.2
 2 -20 26 2.41 5.35
 20 -2 -26 1.33 4.46
 20 2 -26 6.15 4.33
 -2 -20 26 -1.69 5.24
 4 -20 26 -5.42 5.53
 20 -4 -26 -2.41 4.37
 -4 -20 26 -3.2 4.91
 20 4 -26 7 4.38
 -20 -6 26 1.89 4.5
 20 -6 -26 7.14 4.39
 6 -20 26 8.05 5.3
 20 6 -26 5.01 4.42
 -6 -20 26 13.53 5.2
 20 -8 -26 1.22 4.41
 8 -20 26 8.74 5.02
 -20 -8 26 -5.59 4.82
 20 8 -26 5.48 4.86
 10 -20 26 5.9 4.81
 20 -10 -26 -5.19 4.49
 -20 -10 26 -0.63 5.01
 -10 -20 26 -5.58 4.5
 20 10 -26 3.37 4.69
 -20 -12 26 1.05 4.7
 12 -20 26 3.54 4.62
 -12 -20 26 6.22 5.11
 14 -20 26 0.92 4.52
 -20 -14 26 3.22 4.65
 -14 -20 26 5.18 5.05
 -20 -16 26 0.7 5.27
 16 -20 26 2.7 4.13
 -16 -20 26 -3.69 4.43
 -20 -18 26 5.34 4.73
 -18 -20 26 -0.94 4.5
 -20 -20 26 6.01 4.91
 1 -21 26 -6.09 5.5
 21 -1 -26 7.42 4.49
 -1 -21 26 4.22 5.17
 21 1 -26 1.01 4.41
 3 -21 26 10.25 5.45
 21 -3 -26 13.69 4.62
 21 3 -26 5.99 4.51
 -3 -21 26 -0.64 5.36
 21 -5 -26 19.05 4.5
 5 -21 26 20.07 5.54
 21 5 -26 14.85 4.36
 -5 -21 26 9.57 5.19
 -21 -7 26 22.74 4.78
 7 -21 26 21.71 5.3
 21 -7 -26 10.72 4.45
 -7 -21 26 14.13 4.99
 21 7 -26 19.18 4.66
 9 -21 26 27.07 5.37
 -21 -9 26 36.3 5.2
 21 -9 -26 30.27 4.77
 -9 -21 26 40.39 5.96
 21 9 -26 35.33 5.17
 11 -21 26 31.67 5.13
 21 -11 -26 31.03 4.76
 -21 -11 26 24.59 4.87
 -11 -21 26 17.44 4.79
 13 -21 26 11.51 4.9
 21 -13 -26 17.74 4.71
 15 -21 26 7.62 4.49
 -21 -15 26 8.58 4.86
 -15 -21 26 17.06 5.34
 -21 -17 26 -3.47 5.22
 -17 -21 26 5.5 4.94
 -19 -21 26 -2.13 5.06
 0 -22 26 4.02 5.24
 2 -22 26 -1.15 5.73
 22 -2 -26 7.45 4.47
 22 2 -26 10.08 4.39
 -2 -22 26 0.05 5.48
 22 -4 -26 7.71 4.52
 22 4 -26 1.45 4.34
 -22 -6 26 4.87 4.61
 22 -6 -26 3.64 4.44
 -6 -22 26 -4.08 5.3
 22 6 -26 6.57 4.52
 8 -22 26 -4.27 5.14
 22 -8 -26 4.16 4.45
 -22 -8 26 2.26 4.81
 22 8 -26 4.02 4.49
 -8 -22 26 12.07 4.93
 22 -10 -26 -6.13 4.45
 -22 -10 26 -2.03 4.88
 10 -22 26 6.49 5.01
 -10 -22 26 0.4 5.36
 22 10 -26 8.68 5.02
 -22 -12 26 -0.74 5.36
 22 -12 -26 -6.03 4.6
 12 -22 26 2.04 4.85
 -12 -22 26 -6.69 4.56
 -22 -14 26 11.45 5.29
 22 -14 -26 -1.1 4.62
 14 -22 26 0.88 4.72
 -14 -22 26 -1.2 4.68
 -22 -16 26 2.3 5.01
 16 -22 26 5.63 4.38
 -16 -22 26 -4.95 4.85
 -22 -18 26 0.43 5.28
 -18 -22 26 -8.31 4.94
 23 -1 -26 4.14 4.4
 1 -23 26 -2.35 5.35
 23 1 -26 2.42 4.43
 -1 -23 26 -4.85 5.53
 3 -23 26 5.41 5.68
 -3 -23 26 20.17 5.98
 23 3 -26 9.57 4.41
 23 -5 -26 10.35 4.61
 5 -23 26 11.23 5.59
 23 5 -26 20.54 4.68
 -5 -23 26 5.68 5.6
 23 -7 -26 35.31 4.95
 7 -23 26 36.55 5.77
 23 7 -26 36.96 4.8
 9 -23 26 34.89 5.47
 -23 -9 26 29.56 5.16
 23 -9 -26 33.86 4.77
 -9 -23 26 28.88 5.28
 23 9 -26 27.98 4.88
 11 -23 26 21.59 5.18
 23 -11 -26 18.28 4.64
 -23 -11 26 31.87 5.21
 -11 -23 26 31.44 5.44
 13 -23 26 20.42 4.95
 -23 -13 26 11.75 4.9
 23 -13 -26 8.27 4.77
 -13 -23 26 15.07 5.09
 15 -23 26 1.83 4.64
 23 -15 -26 13.65 4.85
 -23 -15 26 3.3 4.84
 -15 -23 26 9.8 4.48
 -23 -17 26 8.99 5.02
 -17 -23 26 1.94 4.27
 0 -24 26 -6.55 5.46
 24 0 -26 -4.29 4.42
 2 -24 26 -7.06 5.83
 24 -2 -26 0.74 4.35
 -2 -24 26 1.4 5.72
 24 2 -26 2.19 4.45
 4 -24 26 -1.18 5.5
 24 -4 -26 -2.51 4.52
 -4 -24 26 2.77 5.8
 24 4 -26 7.68 4.31
 24 -6 -26 -5.76 4.55
 6 -24 26 -0.31 5.45
 -6 -24 26 2.04 5.56
 24 6 -26 10.96 4.62
 -24 -8 26 -4.36 4.7
 24 -8 -26 5.52 4.52
 8 -24 26 -1.55 5.3
 -8 -24 26 3.35 4.86
 24 8 -26 8.47 4.54
 10 -24 26 -8.36 5.2
 -24 -10 26 3.04 4.8
 24 -10 -26 -5.23 4.52
 -10 -24 26 5.67 5.57
 -24 -12 26 0.61 5.03
 12 -24 26 -0.64 4.97
 -12 -24 26 2.64 4.55
 14 -24 26 7.81 4.78
 -24 -14 26 3.96 5.08
 -14 -24 26 -1 5.1
 16 -24 26 -1.19 5.78
 -24 -16 26 1.72 4.8
 -16 -24 26 5.05 5.02
 1 -25 26 -6.68 5.68
 25 -1 -26 5.14 4.42
 -1 -25 26 5.42 5.48
 25 1 -26 5.82 4.48
 3 -25 26 23.55 5.81
 25 -3 -26 17.19 4.51
 25 3 -26 11.99 4.39
 -3 -25 26 13.18 5.74
 25 -5 -26 26.66 4.84
 5 -25 26 32.93 5.98
 -5 -25 26 31.77 5.76
 25 5 -26 30.44 4.88
 25 -7 -26 37.73 4.86
 7 -25 26 36.63 5.85
 25 7 -26 31.61 4.7
 -7 -25 26 22.75 5.22
 -25 -9 26 37.29 5.13
 25 -9 -26 41.36 5.06
 9 -25 26 42.1 5.7
 -9 -25 26 48.96 5.61
 11 -25 26 34.06 5.32
 -25 -11 26 45.27 5.58
 -11 -25 26 37.21 5.57
 13 -25 26 19.19 5.05
 25 -13 -26 22.91 4.76
 -25 -13 26 27.88 5.62
 -13 -25 26 12.39 5.06
 0 -26 26 1.08 5.72
 2 -26 26 17.24 5.8
 26 -2 -26 21.32 4.73
 26 2 -26 19.73 4.43
 26 -4 -26 10.76 4.57
 -4 -26 26 9.33 5.3
 6 -26 26 20.46 5.5
 26 -6 -26 8.51 4.82
 26 6 -26 11.74 4.45
 -6 -26 26 8.21 5.07
 26 -8 -26 5.3 4.69
 -26 -8 26 0.77 4.98
 8 -26 26 3.22 5.35
 26 8 -26 1.18 4.49
 -8 -26 26 3.97 5.11
 -26 -10 26 0.46 5.04
 10 -26 26 1.57 5.07
 26 -10 -26 2.68 4.57
 -10 -26 26 5.98 5.47
 26 -12 -26 -4.43 4.59
 12 -26 26 3.65 4.99
 -26 -12 26 5.75 4.88
 -12 -26 26 8.87 4.51
 1 -27 26 -4.88 5.65
 27 -1 -26 -5.39 4.51
 -1 -27 26 -4.22 5.79
 27 1 -26 3.25 4.5
 27 -3 -26 14.26 4.57
 3 -27 26 7.33 5.6
 -3 -27 26 3.84 5.33
 27 3 -26 9.76 4.45
 27 -5 -26 3.93 4.63
 5 -27 26 8.61 5.4
 -5 -27 26 11.01 5.15
 7 -27 26 22.2 5.47
 27 -7 -26 19.21 4.94
 27 7 -26 18.22 4.55
 -7 -27 26 21.22 5.47
 -27 -9 26 18.49 5.1
 27 -9 -26 27.99 4.91
 9 -27 26 11.83 5.3
 -9 -27 26 20.71 5.64
 28 0 -26 12.31 4.44
 0 -28 26 1.75 5.49
 28 -2 -26 12.54 4.63
 2 -28 26 3.72 5.59
 -2 -28 26 1.05 5.73
 28 2 -26 11.83 4.45
 28 -4 -26 13.31 4.6
 -4 -28 26 14.58 5.97
 28 4 -26 13.95 4.42
 6 -28 26 -3.7 5.31
 28 6 -26 7.27 4.34
 -6 -28 26 13.89 5.7
 -1 0 -27 14.15 3.85
 0 1 -27 23.42 4.04
 0 -1 -27 15.42 3.79
 2 -1 -27 34.71 4.18
 1 2 -27 46.41 4.19
 -1 -2 -27 38.52 4.02
 2 1 -27 34.08 4.21
 1 -2 -27 40.42 4.19
 0 3 -27 210.49 9.56
 0 -3 -27 194.98 9.36
 0 -3 27 201.21 9.53
 3 0 -27 199.77 9.59
 2 3 -27 222.83 10.25
 3 -2 -27 235.05 10.61
 2 -3 -27 223.59 10.27
 -2 -3 27 223.08 10.42
 3 2 -27 229.22 10.33
 4 -1 -27 14.18 4.38
 1 -4 27 7.45 4.18
 1 4 -27 11.32 3.58
 4 1 -27 12.57 4.18
 -1 -4 27 19.12 4.38
 3 4 -27 35.52 3.98
 3 -4 27 40.84 4.24
 4 -3 -27 36.56 4.52
 -4 -3 27 34.42 4.12
 4 3 -27 35.75 4.34
 -3 -4 27 32.56 4.53
 5 0 -27 24 4.11
 0 5 -27 33.04 3.82
 -5 2 -27 31.91 3.58
 2 -5 27 40.17 4.38
 2 5 -27 32.04 4.29
 5 -2 -27 38.05 4.49
 -2 -5 27 29.18 4.51
 5 2 -27 26.73 3.92
 4 5 -27 2.01 4.07
 5 -4 -27 3.15 3.8
 4 -5 27 2.55 3.71
 5 4 -27 0.05 3.55
 -4 -5 27 5.24 4.39
 1 -6 27 16.47 4.1
 -6 1 -27 2.88 3.05
 1 6 -27 4.85 3.99
 6 -1 -27 2.73 4.04
 6 1 -27 8.23 4.03
 -6 -1 -27 9.21 3.04
 -1 -6 27 12.76 4.31
 6 -3 -27 7.55 4.21
 3 -6 27 14.08 3.99
 -6 -3 27 10.34 3.88
 3 6 -27 9.7 4.03
 6 3 -27 13.97 3.98
 -3 -6 27 13.84 4.37
 -6 -5 27 10.03 4.19
 5 -6 27 5.54 3.58
 5 6 -27 5.14 3.97
 6 5 -27 5.52 3.86
 6 -5 27 10.91 3.65
 -5 -6 27 9 4.57
 0 -7 27 499.04 20.62
 -7 0 -27 535.34 20.29
 7 0 -27 542.5 20.66
 0 7 -27 524.73 20.61
 2 -7 27 386.11 15.87
 7 -2 -27 388.87 16.06
 -7 2 -27 391.88 15.63
 -2 -7 27 382.6 16.04
 7 2 -27 411.5 16.16
 -7 -2 -27 402.73 15.53
 4 -7 27 131.19 7.68
 4 7 -27 135.76 7.97
 7 -4 -27 146.79 7.93
 -7 -4 27 135.7 7.97
 7 4 -27 141.25 7.67
 -4 -7 27 132.29 8.06
 6 7 -27 17.34 4.46
 6 -7 27 27.3 3.99
 7 -6 27 21.63 3.74
 7 6 -27 25.8 4.38
 1 8 -27 6.07 3.83
 -8 1 -27 -1.69 3.08
 8 -1 -27 -2.3 4.16
 1 -8 27 4.94 4.21
 -8 -1 -27 2.12 3.02
 8 1 -27 0.51 3.94
 -1 -8 27 -2.38 4.5
 8 -3 -27 -2.02 4.12
 3 -8 27 3.48 4.14
 -8 -3 27 6.43 4.06
 3 8 -27 6.29 4.03
 -8 3 -27 -0.13 3.02
 -8 -5 27 -0.06 4.07
 5 8 -27 6.31 4
 5 -8 27 4.75 3.91
 8 -5 -27 3.73 4
 -5 -8 27 2.99 3.91
 8 5 -27 -0.71 4.09
 7 8 -27 33.39 4.15
 7 -8 27 32.48 4.08
 -8 -7 27 32.19 4.8
 -7 -8 27 34.43 4.77
 8 -7 27 40.92 3.82
 9 0 -27 83.85 6.65
 0 -9 27 89.73 7.16
 -9 0 -27 88.61 5.58
 2 -9 27 60.21 4.94
 -9 -2 -27 57.92 3.94
 9 2 -27 72.53 5.09
 9 -4 -27 20.25 4.47
 4 9 -27 17.06 4.44
 -9 4 -27 15.41 3.38
 4 -9 27 13.63 4.15
 -9 -4 27 15.08 4.36
 -4 -9 27 11.73 4.4
 9 4 -27 19.91 4.04
 6 9 -27 3.74 3.9
 -9 -6 27 5.27 4.42
 6 -9 27 7.55 3.84
 -6 -9 27 0.66 4.09
 9 -6 27 5.62 3.42
 9 6 -27 1.05 3.99
 -9 -8 27 -2.66 4.46
 8 9 -27 -1.64 3.95
 8 -9 27 -3.95 3.67
 -8 -9 27 -8.69 4.23
 9 8 -27 1.35 4.07
 9 -8 27 2.05 3.36
 -10 1 -27 1.4 3.01
 10 -1 -27 -1.84 4.46
 1 10 -27 5.83 4.19
 1 -10 27 2.24 4.41
 -1 -10 27 2.51 4.6
 -10 -1 -27 -2.46 2.83
 10 1 -27 -2.37 4.06
 -10 -3 27 -5.29 4.31
 10 -3 -27 -2.78 4.44
 3 -10 27 6.03 4.27
 3 10 -27 2.45 4.17
 -10 3 -27 0.98 2.98
 10 3 -27 1.29 3.91
 -3 -10 27 -0.72 4.46
 -10 -5 27 2.52 4.04
 5 10 -27 9.39 4.21
 10 -5 -27 4.77 4.29
 5 -10 27 3.49 4.32
 -10 5 -27 7.05 3.12
 -5 -10 27 6.92 4.6
 10 5 -27 -0.9 4.36
 7 10 -27 8.34 4.05
 -10 -7 27 -2.35 4.52
 10 -7 27 4.96 3.31
 10 7 -27 -0.15 4.36
 -7 -10 27 4.78 4.37
 9 10 -27 2.66 4.15
 9 -10 27 3.47 3.73
 -10 -9 27 6.16 4.14
 10 -9 27 10.42 3.46
 10 9 -27 8.42 4.3
 -9 -10 27 6.5 4.69
 -11 0 -27 392.41 14.48
 0 -11 27 340.64 15.39
 0 11 -27 343.8 15.13
 11 0 -27 390.21 15.17
 -11 2 -27 281.58 10.99
 2 -11 27 255.46 12.06
 2 11 -27 256.29 11.99
 11 -2 -27 281.06 11.9
 -2 -11 27 272.08 12.09
 -11 -2 -27 269.99 10.94
 11 2 -27 271.34 11.8
 4 11 -27 95.68 7.33
 4 -11 27 103.89 7.2
 11 -4 -27 97.13 7.08
 -11 -4 27 88.09 5.67
 -11 4 -27 103.54 5.67
 11 4 -27 93.7 7.09
 -4 -11 27 93.28 7.33
 -11 -6 27 7.49 4.44
 11 -6 -27 15.22 4.27
 6 -11 27 22.6 4.24
 6 11 -27 15.99 4.36
 -11 6 -27 14.94 3.16
 -6 -11 27 17.2 4.78
 11 6 -27 8.22 3.97
 8 -11 27 18.4 4.2
 8 11 -27 27.06 4.88
 -8 -11 27 26.86 4.76
 11 8 -27 21.26 4.21
 11 -8 27 18.01 3.51
 10 -11 27 -2.61 3.71
 -11 -10 27 0.27 4.46
 10 11 -27 8.09 4.48
 -10 -11 27 2.29 4.07
 1 -12 27 7.22 4.59
 -12 1 -27 1.32 2.74
 12 -1 -27 4.26 4.19
 -12 -1 -27 2.2 2.73
 -1 -12 27 6.17 4.3
 3 -12 27 7.9 4.49
 12 -3 -27 3.29 4.14
 3 12 -27 9.72 4.43
 -12 -3 27 3.49 4.27
 12 3 -27 3.79 4.02
 -3 -12 27 7.74 4.87
 5 12 -27 7.95 4.52
 12 -5 -27 9.06 4.25
 -12 5 -27 8.99 2.89
 -12 -5 27 13.66 4.07
 5 -12 27 19.76 4.29
 12 5 -27 13.95 4.28
 -5 -12 27 6.39 4.43
 7 12 -27 11.61 5.33
 -12 -7 27 -2.58 4.08
 12 -7 -27 -5.6 3.94
 7 -12 27 -2.1 4.14
 -7 -12 27 1.59 4.35
 12 7 -27 2.91 4.37
 9 12 -27 8.85 5.08
 -12 -9 27 4.82 4.71
 9 -12 27 11.88 4.02
 -9 -12 27 4.75 5.21
 12 -9 27 15.38 3.28
 12 9 -27 18.83 4.23
 -12 -11 27 6.24 4.69
 11 -12 27 -4.36 3.81
 11 12 -27 7.95 5.44
 12 11 -27 0.44 4.57
 -11 -12 27 -7.14 4.33
 12 -11 27 -0.94 3.44
 0 -13 27 34.06 4.82
 13 0 -27 46.55 4.75
 -13 0 -27 41.05 3.22
 2 -13 27 34.56 4.89
 13 -2 -27 28.43 4.36
 13 2 -27 35.2 4.57
 -13 -2 -27 26.91 2.97
 -2 -13 27 25.56 4.84
 13 -4 -27 9.88 4.11
 4 -13 27 7.92 4.32
 -13 -4 27 4.83 4.03
 13 4 -27 12.18 4.26
 -4 -13 27 9.02 4.3
 -13 -6 27 3.21 4.06
 13 -6 -27 5.77 3.99
 6 -13 27 5.28 4.26
 13 6 -27 2.05 4.02
 -6 -13 27 -0.64 4.25
 -13 -8 27 0.38 4.27
 8 -13 27 7.6 4.13
 13 8 -27 10.11 4.48
 -8 -13 27 0.58 4.2
 10 -13 27 -3.87 4.04
 -13 -10 27 -2.74 4.18
 -10 -13 27 -5.03 4.82
 13 10 -27 -6.02 4.45
 13 -10 27 -2.07 3.17
 12 -13 27 2.02 3.76
 13 12 -27 0.26 4.84
 13 -12 27 4.5 3.49
 -12 -13 27 1.12 4.25
 14 -1 -27 -3.93 4.03
 -1 -14 27 3.59 4.66
 -14 -1 -27 3.48 2.64
 14 1 -27 2.42 4.31
 14 -3 -27 0.93 4.04
 3 -14 27 5.18 4.52
 14 3 -27 2.8 3.98
 -3 -14 27 13.55 4.43
 -14 -5 27 7.33 4.09
 5 -14 27 3.4 4.49
 14 -5 -27 4.83 4.32
 -5 -14 27 11.3 4.53
 14 5 -27 4.55 4.04
 7 -14 27 1.92 4.27
 -14 -7 27 6.86 4.25
 14 -7 -27 8.69 4.31
 14 7 -27 11.54 4.52
 -7 -14 27 3.28 4.37
 9 -14 27 23.67 4.4
 -14 -9 27 18.71 4.39
 -9 -14 27 18.68 4.67
 14 9 -27 19.99 4.66
 14 -9 27 29.27 3.25
 -14 -11 27 6.08 4.26
 11 -14 27 14.28 3.99
 -11 -14 27 8.38 4.99
 14 -11 27 5.27 3.29
 -14 -13 27 11.6 4.81
 13 -14 27 0.9 3.81
 14 -13 27 1.4 3.48
 -13 -14 27 6.53 4.78
 15 0 -27 122.63 7.67
 0 -15 27 121.43 8.1
 2 -15 27 73.75 5.66
 15 -2 -27 72.48 5.3
 -2 -15 27 65.58 5.5
 15 2 -27 83.53 6.42
 15 -4 -27 36.51 4.65
 4 -15 27 40.46 5.02
 -4 -15 27 35.8 4.91
 15 4 -27 34.68 4.44
 6 -15 27 9.84 4.63
 -15 -6 27 9.22 4.44
 15 -6 -27 3.61 4.34
 -6 -15 27 12.54 4.41
 15 6 -27 12.43 4.38
 15 -8 -27 14.3 4.2
 8 -15 27 19.48 4.51
 15 8 -27 21.69 4.66
 -15 -10 27 4.19 4.61
 10 -15 27 1.29 4.14
 -10 -15 27 3.56 4.94
 12 -15 27 4.48 3.99
 -15 -12 27 1.94 4.3
 -12 -15 27 -0.35 4.4
 15 12 -27 11.85 5.44
 14 -15 27 -5.15 3.74
 -15 -14 27 2.45 4.33
 -14 -15 27 3.69 4.7
 15 -14 27 2.75 3.53
 1 -16 27 0.34 4.91
 16 -1 -27 2.58 4.06
 16 1 -27 4.44 4.25
 -1 -16 27 3.1 4.97
 3 -16 27 26.38 5.08
 16 -3 -27 21.73 4.46
 16 3 -27 17.78 4.12
 5 -16 27 30.89 5.08
 16 -5 -27 30.28 4.7
 -5 -16 27 20.6 4.7
 16 5 -27 30.28 4.77
 -16 -7 27 16.55 4.52
 16 -7 -27 24.04 4.68
 7 -16 27 20.65 4.84
 -7 -16 27 13.41 4.58
 16 7 -27 27.54 4.54
 9 -16 27 38.99 4.78
 -16 -9 27 27.94 5.12
 16 -9 -27 27.73 4.62
 16 9 -27 31.61 4.93
 -9 -16 27 22.92 5.17
 11 -16 27 21.88 4.41
 -16 -11 27 20.2 4.92
 -11 -16 27 15.07 4.46
 16 11 -27 26.42 5.41
 13 -16 27 6.58 4.06
 -16 -13 27 2.88 4.99
 -13 -16 27 10.75 4.94
 16 -13 27 2.18 3.17
 15 -16 27 0.6 3.69
 -16 -15 27 2.59 5.04
 16 -15 27 3.33 3.47
 -15 -16 27 2.83 4.92
 17 0 -27 94.49 7.36
 0 -17 27 94.83 6.56
 2 -17 27 90.43 7.71
 17 -2 -27 98.91 7.22
 17 2 -27 101.9 6.98
 -2 -17 27 101.63 8.03
 17 -4 -27 73.16 5.55
 -17 -4 27 73.94 5.54
 -4 -17 27 75.4 6
 17 4 -27 84.52 5.53
 17 -6 -27 56.29 5.03
 6 -17 27 61.64 5.46
 -6 -17 27 40.55 5.58
 17 6 -27 51.69 4.82
 17 -8 -27 7.13 4.29
 8 -17 27 15.27 4.81
 -17 -8 27 9.83 5.03
 -8 -17 27 12.94 5.02
 17 8 -27 20.33 4.47
 17 -10 -27 8.48 4.27
 10 -17 27 2.35 4.5
 -10 -17 27 6.63 4.43
 17 10 -27 15.7 4.87
 12 -17 27 5.3 4.23
 -17 -12 27 5.99 4.36
 -12 -17 27 6.98 4.85
 14 -17 27 1.38 4.04
 -17 -14 27 3.89 4.48
 -14 -17 27 -0.79 4.66
 16 -17 27 -3.68 3.65
 -17 -16 27 -1.82 4.8
 -16 -17 27 5.96 4.51
 1 -18 27 -3.63 5.17
 18 -1 -27 4.03 4.46
 -1 -18 27 1.59 4.78
 18 1 -27 -3.42 4.19
 3 -18 27 10.48 5.03
 18 -3 -27 18.84 4.55
 -3 -18 27 13.72 5.13
 18 3 -27 8.84 4.2
 5 -18 27 25.23 5.22
 18 -5 -27 33.03 4.86
 -18 -5 27 24.46 4.43
 18 5 -27 28.91 4.48
 -5 -18 27 27.6 5.29
 7 -18 27 45.37 5.23
 -18 -7 27 50.03 5.29
 18 -7 -27 33.28 4.71
 -7 -18 27 31.63 5.04
 18 7 -27 43.44 4.69
 -18 -9 27 56.45 5.36
 18 -9 -27 49.08 5.1
 9 -18 27 51.15 5.3
 18 9 -27 45.79 4.99
 -9 -18 27 39.59 5.35
 -18 -11 27 32.13 5.21
 18 -11 -27 42.07 4.83
 11 -18 27 33.02 4.93
 18 11 -27 39.36 5.59
 -11 -18 27 35.59 5.31
 13 -18 27 16.43 4.33
 -18 -13 27 8.86 5.07
 -13 -18 27 17.18 4.91
 15 -18 27 3.66 3.95
 -18 -15 27 5.73 5.31
 -15 -18 27 -0.92 4.42
 -18 -17 27 3.57 4.49
 -17 -18 27 1.4 4.39
 19 0 -27 -2.39 4.23
 0 -19 27 7.12 5.52
 19 -2 -27 1.39 4.34
 2 -19 27 -1.28 5.09
 19 2 -27 0.96 4.33
 -2 -19 27 -2.75 5.37
 4 -19 27 -1.4 5.11
 -4 -19 27 8.57 5.1
 19 4 -27 5.41 4.54
 -19 -6 27 0.43 4.59
 6 -19 27 2.63 5.1
 19 -6 -27 5 4.47
 19 6 -27 -1.39 4.5
 -6 -19 27 1.92 5.27
 8 -19 27 5.39 4.94
 19 -8 -27 2.6 4.25
 -19 -8 27 1.78 4.66
 -8 -19 27 -6.63 5.29
 19 8 -27 6.14 4.58
 -19 -10 27 5.77 5.11
 19 -10 -27 8.37 4.47
 10 -19 27 2.83 4.83
 19 10 -27 -4.86 4.74
 -10 -19 27 7.82 4.52
 12 -19 27 11.07 4.61
 19 -12 -27 -3.03 4.28
 -19 -12 27 -5.45 4.44
 -12 -19 27 -4.16 5.13
 14 -19 27 -2.94 4.35
 -19 -14 27 -0.74 4.55
 -14 -19 27 -7.58 4.51
 -19 -16 27 3.79 4.87
 16 -19 27 -1.59 3.93
 -16 -19 27 8.44 4.51
 -19 -18 27 -2.92 4.46
 -18 -19 27 7.61 4.46
 1 -20 27 8.51 5.74
 20 -1 -27 -2.56 4.2
 -1 -20 27 -0.3 5.08
 20 1 -27 1.42 4.21
 20 -3 -27 9.31 4.38
 3 -20 27 2.89 5.24
 -3 -20 27 13.91 5.21
 20 3 -27 12.98 4.32
 20 -5 -27 18.99 4.57
 -5 -20 27 15.12 5.14
 -20 -7 27 10.77 4.84
 7 -20 27 11.07 5.11
 20 -7 -27 11.5 4.43
 20 7 -27 18.08 4.55
 -7 -20 27 12.53 4.88
 -20 -9 27 7.09 4.83
 9 -20 27 11.23 4.98
 20 -9 -27 13.6 4.49
 20 -11 -27 9.83 4.67
 11 -20 27 15.41 4.83
 -20 -11 27 17.48 5.05
 -11 -20 27 8.11 4.86
 -20 -13 27 -0.51 5.37
 20 -13 -27 4.73 4.41
 13 -20 27 6.55 4.62
 -13 -20 27 9.23 5.24
 -20 -15 27 -2.66 5.14
 15 -20 27 3.19 4.24
 -15 -20 27 -9.56 4.5
 -20 -17 27 -6.29 4.59
 -17 -20 27 -6.41 4.4
 -20 -19 27 6.36 4.49
 -19 -20 27 1.3 4.45
 0 -21 27 3.57 5.29
 2 -21 27 22.14 5.82
 21 2 -27 18.49 4.62
 -2 -21 27 14.55 5.57
 21 -4 -27 1.22 4.4
 4 -21 27 1.09 5.34
 -4 -21 27 3.27 5.63
 21 4 -27 4.96 4.55
 21 -6 -27 6.66 4.39
 -21 -6 27 1.25 4.87
 6 -21 27 2.1 5.12
 -6 -21 27 -1.23 5.42
 21 6 -27 8.99 4.49
 -21 -8 27 2.1 4.71
 21 -8 -27 -5 4.36
 21 8 -27 5.38 4.56
 -8 -21 27 2.95 4.75
 10 -21 27 -2.58 5.04
 -21 -10 27 2.22 5.17
 21 -10 -27 -0.79 4.35
 21 10 -27 6.9 4.82
 -10 -21 27 5.43 5.07
 -21 -12 27 0.84 4.67
 21 -12 -27 -3.74 4.74
 12 -21 27 6.97 4.89
 -12 -21 27 5.99 4.72
 -21 -14 27 11.77 4.68
 -14 -21 27 15.28 5.19
 -21 -16 27 3.66 5.27
 16 -21 27 -3.19 4.17
 -16 -21 27 7.49 4.84
 -21 -18 27 -2.71 4.54
 -18 -21 27 3.66 4.64
 22 -1 -27 -1.54 4.22
 1 -22 27 -6.86 5.23
 -1 -22 27 -2.79 5.61
 22 1 -27 2.35 4.54
 3 -22 27 7.67 5.7
 22 3 -27 -1.21 4.43
 -3 -22 27 8.94 5.82
 5 -22 27 8.86 5.57
 22 -5 -27 -1.48 4.6
 22 5 -27 2.12 4.33
 -5 -22 27 1.22 5.91
 7 -22 27 -9.6 5.42
 -22 -7 27 0.45 4.79
 22 -7 -27 -4.4 4.34
 22 7 -27 7.01 4.8
 -7 -22 27 6.1 5.45
 22 -9 -27 5.67 4.37
 9 -22 27 4.98 5.18
 -22 -9 27 -5.71 4.94
 22 9 -27 7.26 4.68
 -9 -22 27 -0.3 4.75
 11 -22 27 6.48 4.95
 -22 -11 27 5.98 4.89
 22 -11 -27 5.43 4.45
 -11 -22 27 -1.25 5.21
 -22 -13 27 -1.08 5.06
 22 -13 -27 6.93 4.8
 13 -22 27 11.41 4.8
 -13 -22 27 -1.79 4.4
 22 -15 -27 2.11 4.54
 15 -22 27 4.41 4.54
 -22 -15 27 -6.16 4.92
 -15 -22 27 -0.04 4.88
 -22 -17 27 5.92 5.07
 23 0 -27 16.69 4.67
 0 -23 27 8.48 5.71
 2 -23 27 3.58 5.52
 23 -2 -27 14.16 4.38
 -2 -23 27 2.48 5.96
 23 2 -27 7.48 4.53
 4 -23 27 3.71 5.55
 -4 -23 27 2.68 5.79
 23 4 -27 6.98 4.33
 23 -6 -27 -4.83 4.37
 6 -23 27 -5.04 5.44
 -6 -23 27 10.33 5.86
 23 6 -27 1.77 4.52
 23 -8 -27 1.54 4.56
 -23 -8 27 -3.26 5.07
 8 -23 27 -9.36 5.17
 -8 -23 27 -5.79 5.52
 23 -10 -27 0.03 4.56
 10 -23 27 1.06 5.09
 -23 -10 27 5.03 4.98
 -10 -23 27 5.86 4.63
 -23 -12 27 -1.29 5.05
 23 -12 -27 3.57 4.46
 12 -23 27 -1.79 4.89
 -12 -23 27 7.83 5.39
 14 -23 27 3.49 4.63
 23 -14 -27 -2.34 4.75
 -23 -14 27 2.95 5.11
 -14 -23 27 5.09 4.42
 -23 -16 27 5.36 5.13
 23 -16 -27 -5.71 4.7
 16 -23 27 14.18 6.53
 -16 -23 27 -0.64 4.35
 24 -1 -27 4.44 4.59
 1 -24 27 2.76 5.54
 -1 -24 27 7.89 5.96
 24 1 -27 5.6 4.44
 3 -24 27 -4.18 5.83
 24 -3 -27 2.69 4.39
 24 3 -27 3.46 4.52
 -3 -24 27 5.14 5.89
 5 -24 27 5.31 5.53
 24 -5 -27 3.88 4.64
 24 5 -27 9.76 4.51
 -5 -24 27 17.69 5.81
 7 -24 27 -6.65 5.48
 -24 -7 27 -3.99 5.02
 24 -7 -27 -2.86 4.49
 -7 -24 27 -1.43 5.8
 24 7 -27 8.88 4.7
 9 -24 27 9 5.1
 -24 -9 27 0.94 5.02
 24 9 -27 2.77 4.77
 -9 -24 27 2.16 5.23
 11 -24 27 11.43 5.01
 -24 -11 27 -0.63 4.71
 24 -11 -27 5.46 4.6
 -11 -24 27 -8.24 4.66
 24 -13 -27 -8.85 4.41
 13 -24 27 11.4 4.88
 -24 -13 27 -2.36 4.92
 -13 -24 27 -3.46 4.92
 15 -24 27 6.76 4.68
 24 -15 -27 -3.58 4.7
 -24 -15 27 -8.18 4.65
 -15 -24 27 -2.84 5.19
 0 -25 27 27.97 5.99
 25 0 -27 38.59 4.82
 25 -2 -27 34.2 4.84
 2 -25 27 35.4 5.97
 -2 -25 27 44.49 6.43
 25 2 -27 31.18 4.86
 25 -4 -27 8.06 4.52
 4 -25 27 20.69 5.57
 25 4 -27 12.3 4.51
 -4 -25 27 18.87 5.97
 25 -6 -27 0.11 4.7
 6 -25 27 9.49 5.46
 -6 -25 27 16.23 5.99
 25 6 -27 5.53 4.54
 -25 -8 27 7.16 4.94
 8 -25 27 2.92 5.31
 25 -8 -27 0.4 4.56
 25 8 -27 5.58 4.69
 -8 -25 27 3.39 5.48
 25 -10 -27 3.93 4.49
 10 -25 27 13.32 5.34
 -10 -25 27 5.04 4.65
 12 -25 27 -0.54 4.99
 -25 -12 27 -7.36 5.16
 25 -12 -27 -0.2 4.65
 -12 -25 27 1.98 5.37
 14 -25 27 10.2 4.84
 -14 -25 27 1.54 4.38
 26 -1 -27 0.84 4.47
 1 -26 27 4.74 5.55
 26 1 -27 5.28 4.46
 -1 -26 27 1.32 5.71
 26 -3 -27 1.48 4.55
 3 -26 27 2.62 5.62
 -3 -26 27 13.67 5.9
 26 3 -27 -1.17 4.41
 26 -5 -27 -4.75 4.6
 5 -26 27 -5.62 5.62
 -5 -26 27 -0.27 5.85
 26 5 -27 -5.29 4.45
 26 -7 -27 12.33 4.72
 26 7 -27 19.67 4.79
 -7 -26 27 15.06 5.67
 26 -9 -27 6.2 4.58
 9 -26 27 2.54 5.25
 -9 -26 27 7.17 4.82
 -26 -11 27 7.45 5.26
 -11 -26 27 2.14 5.11
 0 -27 27 -0.01 5.48
 27 0 -27 -5.4 4.47
 27 -2 -27 -2.99 4.45
 2 -27 27 -5.41 5.67
 27 2 -27 2.64 4.32
 -2 -27 27 -5.03 5.33
 27 -4 -27 -9.17 4.53
 4 -27 27 -4.36 5.63
 -4 -27 27 1.98 5.63
 27 4 -27 -0.61 4.55
 6 -27 27 -1.77 5.44
 27 -6 -27 3.68 4.73
 27 6 -27 10.9 4.55
 -6 -27 27 12 5.51
 27 -8 -27 11.15 4.82
 8 -27 27 -1.7 5.35
 -8 -27 27 1.11 4.77
 28 -1 -27 3.7 4.56
 1 -28 27 -3.19 5.59
 -1 -28 27 -4.65 5.69
 28 1 -27 6.33 4.48
 28 -3 -27 6.68 4.58
 3 -28 27 -8.58 5.6
 28 3 -27 -5.93 4.4
 -3 -28 27 -1.88 5.11
 28 -5 -27 1.44 4.59
 5 -28 27 -3.12 5.33
 -5 -28 27 3.48 4.93
 28 5 -27 10.12 4.35
 1 -1 -28 2.73 3.6
 -1 1 -28 -2.95 5.63
 1 1 -28 3.15 3.66
 0 2 -28 239.89 10.53
 2 2 -28 283.02 12.76
 2 -2 -28 315.43 12.88
 1 3 -28 1.09 3.69
 -1 -3 -28 6.88 3.76
 1 -3 -28 -2.96 3.71
 3 1 -28 4.1 3.93
 -3 -3 28 -0.56 3.99
 3 -3 -28 -6.87 3.82
 4 0 -28 85.2 5.58
 0 4 -28 74.23 4.83
 0 -4 28 75.49 5.1
 4 -2 -28 44.94 4.79
 2 4 -28 42.08 4.37
 2 -4 28 37.18 4.33
 4 2 -28 37.99 4.61
 4 -4 -28 4.23 3.95
 4 4 -28 3.97 3.86
 -4 -4 28 7.47 4.2
 1 -5 28 -0.62 3.87
 1 5 -28 -0.56 3.92
 5 1 -28 1.35 3.99
 -1 -5 28 -2.13 3.81
 -5 -3 28 3.91 4.23
 3 -5 28 -3.98 3.86
 3 5 -28 -5.61 3.86
 5 -3 -28 3.77 3.7
 5 3 -28 1.37 3.96
 5 -5 28 -8.89 3.73
 5 5 -28 -2.1 3.96
 -5 -5 28 -7.54 4.52
 6 0 -28 105.67 7
 -6 0 -28 101.23 5.93
 0 -6 28 95.41 7.24
 2 -6 28 61.67 4.81
 6 -2 -28 65.83 4.9
 -6 2 -28 71.39 4.34
 2 6 -28 60.5 4.64
 -6 -2 -28 71.27 5.24
 6 -4 -28 2.91 4.35
 4 -6 28 6.66 3.85
 4 6 -28 -0.77 3.75
 -6 -4 28 -4.77 4.26
 -4 -6 28 -3.37 4.49
 6 4 -28 4.92 4.02
 6 -6 28 14.62 3.82
 6 6 -28 7.22 4.04
 -6 -6 28 13.32 4.2
 -7 1 -28 -3.8 3.2
 1 -7 28 -5.11 4.02
 1 7 -28 5.79 3.79
 7 -1 -28 6.82 3.86
 -7 -1 -28 1.29 3.06
 -1 -7 28 -0.04 4.16
 7 1 -28 0.97 4.02
 3 -7 28 -0.63 3.88
 3 7 -28 8.39 4.38
 7 -3 -28 1.07 4.17
 7 3 -28 5 4.15
 -3 -7 28 -2.88 4.26
 7 -5 -28 8.47 3.96
 -7 -5 28 -2.41 4.02
 5 -7 28 -0.04 3.83
 5 7 -28 -5.45 4.06
 7 5 -28 -2.71 3.76
 -5 -7 28 4.56 4.11
 7 -7 28 -4.25 3.54
 -7 -7 28 -6.54 4.34
 7 7 -28 -8.52 4.24
 0 -8 28 4.46 3.93
 8 0 -28 7.49 3.73
 -8 0 -28 -0.4 3.13
 2 8 -28 -3.14 3.93
 8 -2 -28 2.32 3.92
 2 -8 28 10.11 4.21
 -8 2 -28 -1.77 3.07
 8 2 -28 2.14 3.98
 -2 -8 28 1.32 4.23
 -8 -2 -28 3.38 3.01
 -8 4 -28 13.84 3.23
 -8 -4 28 12.2 4.06
 8 -4 -28 15.61 4.05
 4 8 -28 22.78 4.34
 4 -8 28 15.54 4.05
 8 4 -28 13.15 3.67
 -4 -8 28 13.16 4.1
 -8 -6 28 4.23 4.24
 6 8 -28 6.89 4.42
 6 -8 28 7.07 3.7
 8 6 -28 0.75 4.25
 8 -6 28 0.95 3.53
 -6 -8 28 3.8 4.4
 8 -8 28 10.27 3.57
 -8 -8 28 10.03 4.42
 8 8 -28 18.9 4.26
 9 -1 -28 -2.4 3.8
 1 -9 28 -3.01 4.28
 -9 1 -28 -0.45 3.01
 1 9 -28 6.72 3.91
 -1 -9 28 -7.67 4.16
 9 1 -28 2.14 3.72
 -9 -1 -28 -2.09 2.92
 -9 3 -28 4.46 2.95
 -9 -3 28 -4.44 4.01
 3 9 -28 4.12 3.97
 9 -3 -28 0.05 4.07
 3 -9 28 5.43 4.18
 -3 -9 28 1.5 4.45
 9 3 -28 -2.77 3.99
 5 -9 28 2.84 3.97
 5 9 -28 0.56 4.45
 9 -5 -28 -0.89 3.81
 -9 5 -28 -2.42 3.21
 -9 -5 28 -2.19 4.35
 -5 -9 28 1.08 4.15
 9 5 -28 2.12 3.88
 7 9 -28 7.28 4.42
 9 7 -28 -4.17 3.87
 -7 -9 28 -1.62 4.7
 9 -7 28 -4.15 3.44
 9 9 -28 0.56 4.24
 -9 -9 28 -5.89 4.7
 9 -9 28 -3.29 3.65
 10 0 -28 9.88 3.86
 -10 0 -28 6.26 2.92
 0 -10 28 -2.52 4.41
 0 10 -28 13.58 4.1
 -10 2 -28 7.68 3.02
 2 -10 28 17.7 4.23
 2 10 -28 12.09 4.31
 10 -2 -28 15.74 4.07
 -2 -10 28 8.26 4.41
 10 2 -28 8.23 3.79
 -10 -2 -28 5.16 2.87
 -10 4 -28 2.26 3.08
 -10 -4 28 -0.61 4.48
 4 -10 28 -2.17 4.15
 10 -4 -28 1.26 3.93
 4 10 -28 2.96 4.04
 10 4 -28 -4.31 3.71
 -4 -10 28 2.06 4.32
 -10 6 -28 -0.29 3.18
 6 -10 28 8.77 4.09
 6 10 -28 1.09 4.46
 10 -6 -28 -6.33 4.24
 -10 -6 28 3.16 3.96
 10 6 -28 -4.55 3.98
 -6 -10 28 0 4.16
 -10 -8 28 -1.22 4.17
 8 -10 28 1.03 3.72
 8 10 -28 7.56 4.53
 -8 -10 28 0.74 4.37
 10 -8 28 3 3.36
 10 8 -28 0.51 3.91
 10 -10 28 -5.28 3.54
 -10 -10 28 5.47 3.97
 10 10 -28 -1.72 4.53
 11 -1 -28 5.63 3.98
 -11 1 -28 5.61 2.99
 1 -11 28 3.41 4.64
 1 11 -28 10.46 4.42
 11 1 -28 0.07 3.98
 -11 -1 -28 -1.16 2.79
 -1 -11 28 -0.25 4.8
 -11 -3 28 -6.23 4.31
 3 -11 28 1.92 4.41
 -11 3 -28 3.07 2.86
 11 -3 -28 2.18 3.9
 3 11 -28 3.33 4.36
 11 3 -28 0.71 3.81
 -3 -11 28 1.79 4.49
 -11 -5 28 -2.72 3.96
 5 11 -28 6.1 4.67
 -11 5 -28 -2.29 2.95
 5 -11 28 1.55 4.34
 11 5 -28 -2.7 3.96
 -5 -11 28 -5.17 4.92
 7 11 -28 2.2 4.53
 7 -11 28 -4.65 4.08
 11 -7 -28 3.95 4.19
 -11 -7 28 -5.63 3.96
 11 7 -28 -0.19 4.41
 -7 -11 28 -2.89 4.6
 9 -11 28 -5.2 3.77
 9 11 -28 -1.66 4.38
 -11 -9 28 -9.62 4.32
 11 9 -28 7.13 4.3
 -9 -11 28 -1.8 4.87
 11 11 -28 2.57 4.96
 11 -11 28 -0.72 3.61
 -11 -11 28 -3.21 4.52
 -12 0 -28 58.74 4.63
 0 -12 28 59.16 5.17
 12 0 -28 57.26 4.9
 12 -2 -28 22.19 4.14
 2 12 -28 19.81 4.61
 -12 2 -28 26.5 2.97
 2 -12 28 19.1 4.67
 -12 -2 -28 32.56 3.06
 12 2 -28 23.79 4.45
 -2 -12 28 31.9 4.99
 -12 4 -28 26.69 3.13
 4 12 -28 29.19 4.88
 -12 -4 28 23.35 4.35
 4 -12 28 29.26 4.7
 12 -4 -28 31.04 4.53
 -4 -12 28 18.59 4.49
 12 4 -28 19.98 4.52
 6 -12 28 5.78 4.23
 12 -6 -28 7.88 4.14
 -12 -6 28 -1.88 4.05
 6 12 -28 9.68 4.7
 12 6 -28 12.51 4.14
 -6 -12 28 4.06 4.2
 -12 -8 28 -4.68 4.76
 8 -12 28 0.02 4.1
 8 12 -28 7.8 4.73
 12 8 -28 4.81 4.22
 12 -8 28 7.6 3.4
 -8 -12 28 5.01 4.23
 -12 -10 28 2.42 4.36
 10 12 -28 -3.5 4.59
 12 -10 28 4.82 3.38
 12 10 -28 4.18 4.44
 -10 -12 28 6.42 4.35
 -12 -12 28 -3.41 4.5
 12 12 -28 2.8 4.89
 12 -12 28 -3.64 3.66
 -13 1 -28 3.57 2.6
 13 -1 -28 5.74 4.05
 1 -13 28 -8.81 4.42
 -1 -13 28 -6.08 4.79
 -13 -1 -28 0.45 2.68
 13 1 -28 -0.86 4.39
 13 -3 -28 4.23 4.15
 3 -13 28 -0.66 4.41
 -13 3 -28 6.29 2.68
 -3 -13 28 -1.79 4.24
 13 3 -28 0.95 3.89
 -13 -3 -28 -4.25 2.65
 5 -13 28 -10.53 4.43
 13 -5 -28 1.2 3.99
 -13 -5 28 3.01 4.1
 13 5 -28 -4.11 3.92
 -5 -13 28 -3.71 4.68
 7 -13 28 -2.01 4.36
 13 -7 -28 -3.49 3.96
 -13 -7 28 -2.9 4.51
 -7 -13 28 -7.23 4.54
 13 7 -28 -0.97 4.48
 -13 -9 28 -3.04 4.07
 9 -13 28 -0.61 4.21
 13 -9 28 -1.06 3.24
 -9 -13 28 -1.14 4.41
 13 9 -28 -3.94 4.29
 -11 -13 28 5 4.73
 13 -13 28 3.49 3.62
 -13 -13 28 -4.46 4.47
 14 0 -28 18.07 4.46
 0 -14 28 27.3 5.05
 14 -2 -28 5.51 4.09
 2 -14 28 6.07 4.71
 14 2 -28 10.95 4.06
 -2 -14 28 8.49 4.32
 -14 -2 -28 6.52 2.72
 14 -4 -28 6.97 4.14
 -14 -4 28 1.47 4.3
 4 -14 28 3.02 4.74
 14 4 -28 -2.9 4.03
 -4 -14 28 9.46 4.67
 6 -14 28 1.31 4.52
 14 -6 -28 -9.73 4.34
 -14 -6 28 -1.99 4.4
 14 6 -28 -0.2 4.32
 -6 -14 28 5.74 4.84
 8 -14 28 -2.13 4.35
 -14 -8 28 -0.93 4.21
 14 -8 -28 4.38 4.23
 -8 -14 28 8.2 4.6
 14 8 -28 -5.03 4.33
 10 -14 28 12.22 4.11
 -14 -10 28 10.1 4.49
 -10 -14 28 7.91 4.23
 14 10 -28 6.4 4.73
 12 -14 28 7.75 3.96
 -14 -12 28 10.23 4.54
 14 -12 28 8.65 3.35
 14 12 -28 17.62 5.25
 -12 -14 28 7.88 5.11
 14 -14 28 17.35 3.81
 -14 -14 28 15.91 4.55
 15 -1 -28 1.14 3.92
 1 -15 28 1.39 4.69
 -1 -15 28 1.36 4.53
 15 1 -28 1.69 4.51
 15 -3 -28 10.92 4.18
 -3 -15 28 5.1 4.75
 -15 -3 -28 -0.71 2.61
 15 3 -28 3.85 3.85
 15 -5 -28 2.09 4.45
 -15 -5 28 1.15 4.54
 5 -15 28 0.47 4.65
 15 5 -28 6.52 4.37
 -5 -15 28 5.13 4.87
 -15 -7 28 -0.9 4.29
 7 -15 28 4.14 4.52
 15 -7 -28 3.04 4.42
 15 7 -28 1.51 4.35
 -7 -15 28 2.46 4.65
 15 -9 -28 5.78 4.27
 -15 -9 28 8.11 4.76
 9 -15 28 9.12 4.3
 -9 -15 28 4.18 4.29
 15 9 -28 4.92 4.57
 11 -15 28 6.93 4.21
 -15 -11 28 -1.26 4.49
 -11 -15 28 3.32 4.89
 15 11 -28 5.28 4.99
 15 -11 28 5.93 3.09
 13 -15 28 7.51 3.92
 -15 -13 28 6.38 5.04
 -13 -15 28 -3.24 4.35
 -15 -15 28 0.67 4.89
 15 -15 28 2.79 3.69
 0 -16 28 154.29 9.15
 16 0 -28 168.98 8.92
 2 -16 28 123.09 8.54
 16 -2 -28 131.47 7.75
 -2 -16 28 114.18 8.58
 16 2 -28 125.92 7.79
 4 -16 28 69.08 5.75
 -16 -4 28 83.96 5.73
 16 -4 -28 84.16 5.54
 16 -6 -28 36.34 4.82
 6 -16 28 35.36 5.06
 -16 -6 28 29.65 4.63
 -6 -16 28 37.45 5.08
 16 6 -28 25.83 4.45
 8 -16 28 9.35 4.56
 16 -8 -28 0.85 4.27
 -16 -8 28 7.69 4.79
 16 8 -28 14.88 4.54
 -8 -16 28 9.43 4.38
 -16 -10 28 -3.99 4.83
 16 -10 -28 6.08 4.31
 10 -16 28 -0.41 4.32
 16 10 -28 9.44 4.98
 -10 -16 28 1.07 4.78
 12 -16 28 4.91 4.21
 -16 -12 28 2 4.33
 -12 -16 28 5.24 4.55
 16 12 -28 14.94 5.3
 14 -16 28 10.29 3.94
 -16 -14 28 2.89 4.54
 -14 -16 28 9.59 5.16
 16 -16 28 11.32 3.67
 -16 -16 28 5.28 4.8
 1 -17 28 4.85 4.89
 17 1 -28 0.21 4.37
 -1 -17 28 5.99 5.3
 3 -17 28 4.45 4.89
 -3 -17 28 6.25 4.74
 17 3 -28 8.49 4.18
 5 -17 28 -4.02 4.78
 17 -5 -28 1.61 4.3
 -17 -5 28 1.2 4.26
 17 5 -28 -2.97 4.16
 -5 -17 28 1.06 4.64
 17 -7 -28 3.45 4.31
 7 -17 28 0.38 4.66
 -17 -7 28 2.39 4.75
 17 7 -28 4.8 4.11
 -17 -9 28 2.48 4.58
 9 -17 28 0.7 4.67
 17 -9 -28 8.88 4.46
 -9 -17 28 8.25 5.19
 17 9 -28 5.6 4.61
 -17 -11 28 8.73 4.89
 11 -17 28 6.15 4.31
 17 11 -28 18.47 5.2
 -11 -17 28 4.97 4.57
 -17 -13 28 11.42 4.79
 13 -17 28 -2.71 4.15
 -13 -17 28 2.55 5.29
 -17 -15 28 0.2 5.11
 15 -17 28 -3.88 3.81
 -15 -17 28 -4.05 4.38
 -17 -17 28 8.15 4.38
 18 0 -28 8.13 4.03
 0 -18 28 4.93 4.86
 2 -18 28 12.99 5.27
 18 -2 -28 17.09 4.32
 18 2 -28 12.31 4.28
 -2 -18 28 17.22 5.34
 18 -4 -28 6.27 4.19
 4 -18 28 0.2 5.29
 18 4 -28 -3.05 4.23
 -4 -18 28 1.18 5.43
 18 -6 -28 -5.07 4.29
 6 -18 28 0.35 4.89
 -18 -6 28 -8.1 4.75
 -6 -18 28 -10.05 5.21
 18 6 -28 0.3 4.32
 18 -8 -28 0.46 4.28
 -18 -8 28 -6.14 4.39
 8 -18 28 -0.56 4.74
 18 8 -28 2.76 4.46
 -8 -18 28 6.79 5.02
 18 -10 -28 -1.46 4.36
 -18 -10 28 2.85 4.74
 10 -18 28 4.35 4.68
 -10 -18 28 0.71 4.46
 18 10 -28 0.47 4.73
 -18 -12 28 9.17 4.68
 12 -18 28 8.85 4.32
 -12 -18 28 5.61 5.05
 14 -18 28 6.74 4.16
 -18 -14 28 14.67 4.99
 -14 -18 28 11.19 4.54
 -18 -16 28 1.22 4.46
 16 -18 28 6.97 3.82
 -16 -18 28 3.07 4.38
 -18 -18 28 11.2 4.64
 19 -1 -28 -4.38 4.25
 1 -19 28 3.11 5.22
 19 1 -28 3.19 4.24
 -1 -19 28 -1.89 5.19
 3 -19 28 -8.36 5.48
 19 -3 -28 -0.03 4.31
 19 3 -28 -1.33 4.37
 -3 -19 28 -3.28 4.94
 19 -5 -28 2.06 4.31
 5 -19 28 6.67 5.31
 -5 -19 28 3 4.74
 19 5 -28 4.41 4.36
 7 -19 28 -1.17 4.93
 19 -7 -28 -1.85 4.48
 -19 -7 28 0.36 4.38
 19 7 -28 -4.14 4.65
 -7 -19 28 -4.81 4.54
 19 -9 -28 -0.42 4.36
 -19 -9 28 6.5 4.47
 9 -19 28 -1.28 4.76
 -9 -19 28 2.83 5.08
 19 9 -28 4.69 4.62
 11 -19 28 6.92 4.55
 -19 -11 28 7.28 5.26
 19 11 -28 3.61 5.04
 -11 -19 28 7.8 4.84
 13 -19 28 5.63 4.43
 -19 -13 28 3.57 4.78
 -13 -19 28 -4.98 4.89
 -19 -15 28 0.76 5.11
 15 -19 28 3.06 4.11
 -15 -19 28 -2.81 4.34
 -19 -17 28 -2.42 4.48
 -17 -19 28 -5.8 4.39
 -19 -19 28 0.74 4.59
 20 0 -28 16.65 4.55
 0 -20 28 11.76 5.32
 2 -20 28 13.44 5.38
 20 -2 -28 15.62 4.6
 20 2 -28 7.79 4.36
 -2 -20 28 4.4 5.29
 20 -4 -28 8.91 4.4
 4 -20 28 7.92 5.46
 20 4 -28 8.66 4.46
 20 -6 -28 0.28 4.32
 -20 -6 28 4.58 4.4
 6 -20 28 4.23 5.29
 20 6 -28 2.56 4.23
 -6 -20 28 -2.14 5.33
 8 -20 28 -5.24 5.07
 20 -8 -28 4.6 4.25
 20 8 -28 8.47 4.78
 -8 -20 28 0.73 4.98
 10 -20 28 5.82 4.82
 20 -10 -28 -0.51 4.53
 -20 -10 28 7.88 4.71
 20 10 -28 4.61 4.71
 -10 -20 28 1.97 4.55
 12 -20 28 1.54 4.67
 20 -12 -28 -2.97 4.48
 -20 -12 28 -6.18 4.85
 -12 -20 28 -5.64 4.8
 -20 -14 28 -3.58 4.87
 14 -20 28 9.93 4.39
 -14 -20 28 2.99 4.87
 16 -20 28 4.54 3.99
 -20 -16 28 -0.06 4.57
 -16 -20 28 3.02 4.44
 -20 -18 28 -2.85 4.52
 -18 -20 28 9.11 4.42
 -20 -20 28 1.37 4.47
 21 -1 -28 -5.55 4.26
 1 -21 28 9.22 5.3
 -1 -21 28 -0.37 5.55
 21 1 -28 -4.43 4.21
 3 -21 28 -2.24 5.34
 21 -3 -28 2.61 4.49
 21 3 -28 8.42 4.37
 -3 -21 28 6.47 5.53
 21 -5 -28 0.85 4.41
 5 -21 28 0.51 5.35
 -5 -21 28 -2.83 5.28
 21 5 -28 7.05 4.48
 7 -21 28 -5.93 5.14
 21 -7 -28 5.06 4.4
 -21 -7 28 -4.76 4.38
 21 7 -28 4.31 4.5
 -21 -9 28 7.09 4.5
 9 -21 28 5.96 4.97
 21 -9 -28 -4.55 4.48
 -9 -21 28 -3.24 5.07
 21 9 -28 0.26 4.8
 21 -11 -28 -7.4 4.62
 -21 -11 28 3.09 5.32
 11 -21 28 -1.7 4.88
 -11 -21 28 -2.33 4.51
 -21 -13 28 -0.23 4.91
 13 -21 28 8.86 4.61
 21 -13 -28 -1.67 4.51
 -13 -21 28 -6.16 4.86
 15 -21 28 -2.58 4.38
 -21 -15 28 -1.37 5.29
 -15 -21 28 -9.12 4.9
 -21 -17 28 -2.26 4.48
 -17 -21 28 3.27 4.48
 -21 -19 28 -3.41 4.5
 -19 -21 28 1.21 4.37
 22 0 -28 3.5 4.25
 0 -22 28 4.68 5.71
 2 -22 28 -0.28 5.35
 22 -2 -28 1.78 4.45
 -2 -22 28 5.09 5.37
 22 2 -28 -2.81 4.5
 4 -22 28 -4.75 5.4
 22 -4 -28 -1.3 4.49
 22 4 -28 4.95 4.39
 -4 -22 28 5.77 5.14
 22 -6 -28 -3.79 4.44
 6 -22 28 6.45 5.43
 22 6 -28 -1.46 4.45
 -6 -22 28 2.24 4.99
 8 -22 28 0.57 5.14
 22 -8 -28 4.72 4.34
 -22 -8 28 -1.91 4.6
 -8 -22 28 -2.95 5.34
 22 8 -28 -5.45 4.61
 22 -10 -28 -5.8 4.3
 -22 -10 28 4.45 4.78
 10 -22 28 8.65 5.03
 22 10 -28 -3.47 5
 -10 -22 28 -1.31 5.15
 12 -22 28 2.69 4.87
 22 -12 -28 1 4.76
 -22 -12 28 3.99 4.79
 -22 -14 28 0.56 4.75
 22 -14 -28 -2.99 4.63
 14 -22 28 6.09 4.73
 -14 -22 28 2.08 4.77
 16 -22 28 -3.17 6.89
 -22 -16 28 3.34 5.02
 -16 -22 28 -0.34 5.01
 23 -1 -28 2.18 4.39
 1 -23 28 -0.87 5.58
 23 1 -28 5.22 4.57
 -1 -23 28 1.55 5.67
 3 -23 28 5.76 5.72
 23 -3 -28 -7.2 4.51
 -3 -23 28 -2.21 5.21
 23 3 -28 0.8 4.41
 23 -5 -28 9.84 4.44
 5 -23 28 -1.37 5.39
 -5 -23 28 0.08 5.05
 23 5 -28 -7.25 4.53
 23 -7 -28 2.23 4.45
 -23 -7 28 -8.5 4.61
 7 -23 28 -6.99 5.27
 23 7 -28 6.16 4.53
 -7 -23 28 -3.01 4.91
 9 -23 28 2.63 5.09
 -23 -9 28 -6.09 4.51
 23 -9 -28 -3.18 4.38
 23 9 -28 -7.7 4.63
 -9 -23 28 -2.99 5.37
 -23 -11 28 6.53 5.19
 11 -23 28 4.61 5.04
 23 -11 -28 7.74 4.45
 -11 -23 28 -1.24 5
 -23 -13 28 1.04 5.4
 23 -13 -28 -4.35 4.76
 13 -23 28 6.76 4.72
 -13 -23 28 4.1 4.92
 15 -23 28 7.21 4.69
 -23 -15 28 1.32 5.12
 23 -15 -28 -5.19 4.8
 -15 -23 28 -5.36 4.22
 0 -24 28 1.58 5.92
 24 0 -28 -5.39 4.5
 24 -2 -28 1.3 4.4
 2 -24 28 -0.43 5.52
 -2 -24 28 0.44 5.39
 24 2 -28 4.66 4.56
 4 -24 28 8 5.58
 24 -4 -28 0.74 4.44
 -4 -24 28 5.78 5.17
 24 4 -28 3.91 4.56
 24 -6 -28 0.09 4.65
 6 -24 28 -0.57 5.43
 24 6 -28 0.03 4.54
 -6 -24 28 -3.97 5.01
 24 -8 -28 -0.98 4.63
 8 -24 28 -1.45 5.33
 -24 -8 28 -10.48 4.58
 -8 -24 28 -6.65 4.88
 24 8 -28 5.02 4.67
 24 -10 -28 -2.81 4.58
 -24 -10 28 1.21 5.22
 10 -24 28 -0.31 5.18
 -10 -24 28 -2.79 5.43
 24 -12 -28 4.06 4.49
 12 -24 28 8.03 4.94
 -12 -24 28 1.34 4.42
 24 -14 -28 -2.08 4.71
 14 -24 28 0.25 4.76
 -24 -14 28 -0.35 4.84
 -14 -24 28 -2.98 5.1
 25 -1 -28 -3.7 4.44
 1 -25 28 5.4 5.71
 25 1 -28 7.47 4.54
 -1 -25 28 2.81 5.85
 25 -3 -28 -3.29 4.44
 3 -25 28 -4.68 5.81
 25 3 -28 -0.71 4.49
 -3 -25 28 12.2 5.38
 5 -25 28 -0.7 5.4
 25 -5 -28 -2.32 4.6
 -5 -25 28 3.17 5.15
 25 5 -28 6.97 4.51
 7 -25 28 4.71 5.35
 25 -7 -28 -2.63 4.63
 -7 -25 28 2.55 4.95
 25 7 -28 0.22 4.51
 25 -9 -28 3.33 4.51
 -25 -9 28 -9.95 4.88
 9 -25 28 12.52 5.27
 25 9 -28 -2.03 4.56
 -9 -25 28 2.41 5.39
 -25 -11 28 3.93 4.88
 11 -25 28 -1.34 5.01
 -11 -25 28 4.31 5.07
 25 -13 -28 2.46 4.48
 13 -25 28 -2.77 4.83
 -25 -13 28 2.71 5.02
 -13 -25 28 3.42 4.61
 26 0 -28 6.54 4.55
 0 -26 28 -8.03 5.73
 26 -2 -28 0.82 4.48
 2 -26 28 9.48 5.57
 -2 -26 28 3.59 5.8
 4 -26 28 7.51 5.53
 26 -4 -28 2.02 4.49
 26 4 -28 11.14 4.52
 -4 -26 28 5.37 5.26
 6 -26 28 7.32 5.53
 26 -6 -28 -2.11 4.66
 -6 -26 28 4.19 5.08
 26 6 -28 4.27 4.44
 26 -8 -28 2.64 4.58
 8 -26 28 -5.65 5.28
 26 8 -28 4.77 4.56
 -8 -26 28 6.6 5.43
 26 -10 -28 -2.96 4.52
 -26 -10 28 4.27 4.8
 10 -26 28 8.15 5.25
 -10 -26 28 -9.28 5.28
 1 -27 28 4.04 5.41
 27 -1 -28 -3.3 4.51
 27 1 -28 5.07 4.4
 -1 -27 28 10.11 5.81
 27 -3 -28 5.12 4.64
 3 -27 28 1.85 5.67
 27 3 -28 11.21 4.48
 -3 -27 28 6.91 5.98
 5 -27 28 -6.07 5.57
 27 -5 -28 0.81 4.5
 27 5 -28 -1.57 4.43
 -5 -27 28 7.88 5.67
 7 -27 28 3.86 5.42
 27 -7 -28 4.23 4.78
 -7 -27 28 5.98 5.6
 27 7 -28 4.61 4.49
 0 -28 28 -4.37 5.35
 28 0 -28 1.69 4.47
 28 -2 -28 1.81 4.59
 2 -28 28 -3.11 5.66
 28 2 -28 -1.82 4.4
 -2 -28 28 -0.59 5.56
 4 -28 28 2.06 5.7
 28 -4 -28 3.74 4.65
 28 4 -28 -6.08 4.47
 -4 -28 28 9.34 5.76
 1 0 -29 33.48 4.03
 -1 0 -29 25.8 3.6
 0 -1 -29 26.4 3.88
 2 -1 -29 8.68 3.85
 -1 -2 -29 9.68 3.57
 1 2 -29 3.72 3.52
 1 -2 -29 9.89 3.73
 2 1 -29 13 4.26
 3 0 -29 292.64 11.93
 0 -3 -29 261.53 11.92
 0 3 -29 274.32 11.91
 2 3 -29 134.29 7.9
 3 -2 -29 141.28 7.76
 3 2 -29 141.39 7.74
 2 -3 -29 132.33 7.71
 4 -1 -29 9.15 4.26
 -1 -4 29 4.95 4.14
 4 1 -29 14.97 3.99
 4 -3 -29 182.14 9.72
 3 4 -29 216.22 9.54
 -4 -3 29 202.54 9.79
 3 -4 -29 212.56 9.67
 -3 -4 29 208.14 9.76
 5 0 -29 110.08 7.12
 0 5 -29 114.73 6.71
 0 -5 29 99.02 7.11
 2 5 -29 19.22 3.78
 2 -5 29 24.2 4.12
 -5 2 -29 9.49 4.2
 5 -2 -29 24.15 4.13
 -2 -5 29 16 4.23
 5 2 -29 16.65 3.84
 5 -4 -29 72.54 5.13
 4 -5 29 74.26 4.89
 4 5 -29 55.35 4.73
 -5 -4 29 74.99 5.41
 -4 -5 29 65.92 5.25
 5 4 -29 57.01 4.42
 6 -1 -29 -0.91 3.93
 -6 1 -29 -5.68 3.11
 1 6 -29 5.76 3.64
 1 -6 29 -3.97 4.02
 6 1 -29 -0.3 3.81
 -6 -1 -29 5.98 3.03
 -1 -6 29 -0.6 3.92
 3 -6 29 75.24 5.08
 -6 -3 29 83.86 5.64
 3 6 -29 87.09 6.37
 -6 3 -29 70.42 4.5
 6 -3 -29 75.63 5.45
 -3 -6 29 81.86 5.45
 5 6 -29 31.64 4.23
 5 -6 29 30.36 4.15
 6 -5 -29 33.5 4.77
 -6 -5 29 44.23 4.76
 6 5 -29 32.29 4.47
 -5 -6 29 38.55 4.79
 -7 0 -29 307.15 12.56
 7 0 -29 304.08 13.07
 0 7 -29 313.52 13.07
 7 -2 -29 116.36 7.38
 2 -7 29 116.41 7.39
 2 7 -29 112.66 7.2
 7 2 -29 117.93 7.23
 -2 -7 29 103.62 7.34
 4 -7 29 132.84 7.58
 7 -4 -29 136.98 7.85
 4 7 -29 136.16 8.07
 -7 -4 29 132.66 7.95
 -4 -7 29 121.9 7.78
 7 4 -29 133.96 7.57
 -7 -6 29 50.27 4.47
 6 7 -29 52.65 4.67
 -6 -7 29 58.39 4.61
 8 -1 -29 2.52 4.08
 1 8 -29 9.87 3.91
 8 -3 -29 62.86 5.04
 -8 3 -29 63.28 5.15
 -8 -3 29 70.28 5.17
 3 8 -29 75.33 5.04
 8 3 -29 55.58 4.63
 -3 -8 29 54.49 4.9
 8 -5 -29 45.97 4.94
 5 8 -29 51.15 4.59
 5 -8 29 52.05 4.44
 -5 -8 29 48.16 4.87
 8 5 -29 42.62 4.45
 7 -8 29 55.57 4.38
 7 8 -29 48.56 4.55
 -8 -7 29 51.85 4.9
 8 -7 29 52.59 4.33
 8 7 -29 48.04 4.74
 -7 -8 29 53.29 4.54
 -9 0 -29 76.91 5.57
 0 -9 29 100.9 5.83
 9 0 -29 78.84 6.6
 9 -2 -29 10.12 4.01
 -9 2 -29 9.63 3.08
 2 -9 29 4.14 4.08
 2 9 -29 -1.22 3.92
 9 2 -29 5.43 4.12
 -2 -9 29 7.75 4.64
 4 -9 29 31.51 4.31
 9 -4 -29 30.73 4.81
 -9 4 -29 33.77 3.44
 4 9 -29 33.49 4.72
 9 4 -29 29.25 4.38
 -4 -9 29 40.58 4.6
 6 -9 29 15.71 4.01
 9 -6 -29 8.46 4.04
 -6 -9 29 14.37 4.45
 9 6 -29 14.37 4.34
 8 9 -29 5.98 4.05
 8 -9 29 13.93 3.66
 -9 -8 29 -1.44 4.19
 9 -8 29 5.72 3.5
 9 8 -29 16.62 4.45
 -8 -9 29 8.58 4.06
 1 -10 29 2.6 4.32
 10 -1 -29 6.01 3.9
 -10 1 -29 6.88 3.03
 10 1 -29 4.38 3.8
 -1 -10 29 1.49 4.27
 -10 -1 -29 2.53 2.98
 -10 3 -29 -2.49 3.05
 3 -10 29 -6.48 4.17
 3 10 -29 5.7 4.26
 10 -3 -29 4.01 4.24
 -3 -10 29 4 4.42
 10 3 -29 -3.43 3.71
 5 -10 29 3.32 4.1
 10 -5 -29 -4.09 4.23
 5 10 -29 3.45 4.05
 -10 5 -29 3.06 3.2
 -10 -5 29 -4.87 4.26
 10 5 -29 -5.43 3.81
 -5 -10 29 0.04 4.47
 7 -10 29 6.71 3.97
 -10 -7 29 2.23 4.31
 7 10 -29 7.23 3.98
 -7 -10 29 7.23 4.85
 10 7 -29 9.83 4.01
 9 -10 29 29.74 3.96
 -10 -9 29 23.62 4.12
 -9 -10 29 30.44 4.99
 10 9 -29 30.64 4.92
 11 0 -29 346.62 14.42
 0 -11 29 318.31 14.58
 0 11 -29 335.81 14.23
 -11 0 -29 365.39 13.63
 11 -2 -29 140.18 8.12
 2 11 -29 134.19 8.6
 -11 2 -29 152.36 6.94
 11 2 -29 151.08 8.04
 -2 -11 29 140.69 8.78
 -11 -2 -29 145.28 6.92
 4 11 -29 153.2 8.96
 -11 4 -29 175.09 7.82
 -11 -4 29 176.88 8.89
 4 -11 29 177.23 8.9
 11 -4 -29 175.66 8.95
 -4 -11 29 153.8 9.13
 11 4 -29 172.63 8.71
 -11 -6 29 78.3 5.62
 11 -6 -29 75.15 5.43
 -11 6 -29 64.75 5.1
 11 6 -29 73.38 5.63
 -11 -8 29 44.05 4.86
 8 -11 29 43.66 4.42
 8 11 -29 45.37 5.12
 -8 -11 29 46.26 4.69
 11 8 -29 49.54 4.59
 11 -8 29 37.49 3.89
 -11 -10 29 9.14 4.67
 10 -11 29 4.49 3.7
 10 11 -29 1.36 4.65
 -10 -11 29 4.15 4.04
 11 10 -29 7.08 4.6
 12 -1 -29 0.7 3.84
 1 -12 29 10.01 4.66
 -1 -12 29 -1.48 4.49
 -12 -1 -29 7.07 2.81
 12 1 -29 7.01 4.23
 12 -3 -29 3.14 4.33
 3 12 -29 8.43 4.89
 -12 3 -29 0.87 3.02
 3 -12 29 3.3 4.5
 -3 -12 29 0.37 4.45
 12 3 -29 -1.17 4.15
 -12 -3 -29 0.82 2.85
 5 -12 29 -3.39 4.34
 -12 5 -29 1.66 2.84
 -12 -5 29 7.22 4.51
 12 -5 -29 -6.59 4.12
 5 12 -29 -0.88 4.58
 12 5 -29 0.86 3.91
 -5 -12 29 -0.76 4.48
 7 12 -29 4.05 5.08
 -12 -7 29 -1.28 4.32
 12 -7 -29 2.86 4.22
 7 -12 29 -2.76 4.17
 -7 -12 29 -1.02 4.55
 12 7 -29 5.88 4.15
 -12 -9 29 13.81 4.31
 9 12 -29 18.2 4.85
 12 9 -29 12.44 4.2
 -9 -12 29 15.58 4.67
 11 12 -29 4.04 5.14
 -12 -11 29 -2.03 4.84
 11 -12 29 0.51 3.72
 12 -11 29 3.01 3.49
 -11 -12 29 5.68 4.15
 13 0 -29 89.16 7.02
 -13 0 -29 100.88 5.53
 0 -13 29 93.54 7.29
 13 -2 -29 26.68 4.37
 -13 2 -29 26.93 2.94
 -2 -13 29 18.4 4.57
 -13 -2 -29 22.46 3.06
 13 2 -29 26.61 4.46
 4 -13 29 28.22 4.72
 13 -4 -29 24.56 4.31
 -13 -4 29 38.92 4.84
 13 4 -29 28.36 4.08
 -13 -6 29 -3.4 4.58
 6 -13 29 -0.39 4.29
 13 -6 -29 -6.29 4
 13 6 -29 -3.39 4.58
 -6 -13 29 -2.9 5.01
 -13 -8 29 2.08 4.09
 13 -8 -29 2.59 4.27
 8 -13 29 -0.32 4.34
 8 13 -29 6.16 4.81
 -8 -13 29 2.06 4.86
 13 8 -29 -0.14 4.21
 10 -13 29 21.11 4.15
 10 13 -29 25.06 5
 13 10 -29 11.82 4.45
 13 -10 29 19.07 3.45
 -10 -13 29 21.16 4.7
 12 -13 29 7.25 3.87
 -13 -12 29 17.43 4.99
 13 -12 29 12.33 3.54
 -12 -13 29 8.86 4.34
 13 12 -29 14.99 4.83
 14 -1 -29 10.29 4.11
 1 -14 29 18.27 4.64
 -1 -14 29 16.05 4.65
 14 1 -29 13.51 4.42
 3 -14 29 19.33 4.58
 14 -3 -29 8.33 4.24
 -14 -3 -29 12.37 2.8
 14 3 -29 4.78 3.92
 5 -14 29 51.92 5.02
 -14 -5 29 46.48 5.11
 14 -5 -29 53.23 4.85
 -5 -14 29 52.92 5.43
 14 5 -29 48.84 5.05
 14 -7 -29 35.93 4.7
 7 -14 29 48.58 4.91
 -14 -7 29 42.34 4.63
 14 7 -29 42.87 4.78
 -7 -14 29 52.32 5.32
 -14 -9 29 83.15 5.83
 14 -9 -29 83.08 5.65
 9 -14 29 87.59 6.81
 14 9 -29 71.79 5.52
 -9 -14 29 92.76 6.25
 -14 -11 29 39.53 4.7
 11 -14 29 53.95 4.61
 14 -11 29 47.21 3.78
 -11 -14 29 40.86 4.99
 -14 -13 29 70.89 5.66
 13 -14 29 68.87 4.75
 -13 -14 29 63.14 5.56
 14 -13 29 64.19 5.46
 0 -15 29 216.1 10.72
 15 0 -29 224.99 10.4
 15 -2 -29 122.29 7.5
 2 -15 29 107.04 8.15
 -2 -15 29 111.8 7.93
 15 2 -29 118.17 7.57
 -15 -4 29 108.37 7.4
 4 -15 29 100.18 7.65
 15 -4 -29 115.36 7.34
 -4 -15 29 101.58 7.9
 6 -15 29 53.32 5.08
 15 -6 -29 43.19 5.04
 -6 -15 29 50.3 5.52
 15 6 -29 45.38 4.83
 8 -15 29 33.35 4.65
 -15 -8 29 39.19 5.01
 15 -8 -29 22.17 4.49
 15 8 -29 28.83 4.64
 -8 -15 29 35.55 5.51
 10 -15 29 1.61 4.36
 -15 -10 29 4.91 4.93
 -10 -15 29 0.08 4.59
 15 10 -29 12.64 4.69
 -15 -12 29 3 4.12
 12 -15 29 5.87 4.15
 15 -12 29 1.28 3.24
 15 12 -29 11.86 5.42
 -12 -15 29 6.81 4.44
 -15 -14 29 10.63 4.35
 14 -15 29 10.21 3.82
 15 -14 29 13.53 3.58
 -14 -15 29 11.61 4.85
 1 -16 29 -3.51 4.8
 16 -1 -29 1.55 4.14
 16 1 -29 4.37 4.46
 -1 -16 29 -0.77 4.75
 16 -3 -29 6.33 4.25
 3 -16 29 2.61 4.91
 16 3 -29 -1.77 4.16
 -3 -16 29 7.48 4.84
 -16 -3 -29 -0.1 2.66
 5 -16 29 7.53 4.72
 16 -5 -29 1.18 4.21
 -16 -5 29 1.99 4.35
 16 5 -29 -4.61 4.26
 -5 -16 29 1.37 5.12
 16 -7 -29 8.48 4.36
 7 -16 29 13.84 4.73
 -16 -7 29 -1.86 4.6
 16 7 -29 4.8 4.23
 -7 -16 29 7.87 5.14
 -16 -9 29 17.04 4.51
 9 -16 29 21.93 4.55
 16 -9 -29 17.43 4.54
 16 9 -29 23.62 4.65
 -9 -16 29 16.18 4.83
 -16 -11 29 19.23 5.02
 11 -16 29 18.62 4.42
 16 11 -29 25.98 5.4
 -16 -13 29 22.98 4.76
 13 -16 29 18.24 4.23
 -13 -16 29 24.62 5.08
 15 -16 29 4.33 3.7
 -16 -15 29 10.56 5.06
 16 -15 29 1.56 4.3
 -15 -16 29 6.29 4.76
 17 0 -29 9.73 4.19
 0 -17 29 13.63 5.16
 2 -17 29 25.79 5.23
 17 -2 -29 25.4 4.35
 -2 -17 29 22.22 4.91
 17 2 -29 28.44 4.3
 17 -4 -29 4 4.11
 4 -17 29 16.48 4.97
 -4 -17 29 13.46 4.93
 17 4 -29 11.5 4.37
 6 -17 29 5.07 4.85
 -17 -6 29 14.82 4.41
 17 -6 -29 13.61 4.42
 17 6 -29 20.33 4.34
 -17 -8 29 1.28 4.09
 8 -17 29 11.13 4.61
 -8 -17 29 2.31 4.43
 17 8 -29 4.3 4.35
 10 -17 29 5.19 4.39
 -17 -10 29 -0.21 4.41
 17 -10 -29 3.3 4.37
 17 10 -29 6.92 4.81
 -10 -17 29 -3.16 4.79
 12 -17 29 1.96 4.31
 17 12 -29 5.26 5.05
 -12 -17 29 -3.55 4.69
 14 -17 29 8.18 4.05
 -17 -14 29 -5.96 4.77
 -14 -17 29 -2.54 4.82
 16 -17 29 -0.96 3.88
 -17 -16 29 -3.66 4.39
 -16 -17 29 3.57 4.41
 1 -18 29 10.11 5.12
 18 -1 -29 1.76 4.59
 -1 -18 29 1.99 5.29
 18 1 -29 6.28 4.27
 3 -18 29 9.27 5.02
 18 -3 -29 5.86 4.29
 18 3 -29 0.79 4.38
 -3 -18 29 5.84 5.24
 5 -18 29 11.11 4.98
 -18 -5 29 14.3 4.5
 18 -5 -29 16.35 4.31
 18 5 -29 6.95 4.78
 -5 -18 29 20.05 4.92
 7 -18 29 29.27 5.18
 -18 -7 29 22.64 4.46
 18 -7 -29 31.82 4.85
 -7 -18 29 24.22 5.02
 18 7 -29 16.62 4.68
 18 -9 -29 22.94 4.74
 -18 -9 29 26.04 4.6
 9 -18 29 24.53 4.78
 -9 -18 29 28.74 5.4
 18 9 -29 25.38 4.75
 -18 -11 29 16.6 4.94
 11 -18 29 25.18 4.6
 18 -11 -29 25.92 4.74
 -11 -18 29 22.46 4.78
 18 11 -29 15.75 5.24
 13 -18 29 16.49 4.37
 -18 -13 29 10.42 4.54
 -13 -18 29 11.06 5.1
 -18 -15 29 2.21 4.81
 15 -18 29 -0.42 3.94
 -15 -18 29 3.99 4.39
 -18 -17 29 6.02 4.63
 -17 -18 29 5.94 4.67
 19 0 -29 -3.25 4.07
 0 -19 29 1.85 5.41
 19 -2 -29 19.06 4.65
 2 -19 29 5.04 5.09
 -2 -19 29 16.56 4.9
 19 2 -29 9.82 4.19
 4 -19 29 6.94 5.15
 19 -4 -29 11.43 4.38
 -4 -19 29 18.79 5.25
 19 4 -29 2.82 4.3
 -19 -6 29 2.95 4.32
 19 -6 -29 -1.82 4.19
 6 -19 29 3.72 4.98
 -6 -19 29 -1.21 5.04
 19 6 -29 5.79 4.4
 19 -8 -29 -7.42 4.3
 8 -19 29 3.82 4.89
 -19 -8 29 -6.71 4.5
 19 8 -29 11.38 4.77
 -8 -19 29 -2.57 4.66
 19 -10 -29 -3.39 4.47
 -19 -10 29 5.54 4.35
 10 -19 29 3.05 4.68
 -10 -19 29 5.31 4.53
 19 10 -29 12.37 4.67
 -19 -12 29 -2.08 4.91
 12 -19 29 -1.01 4.48
 19 -12 -29 -3.61 4.45
 -12 -19 29 1.29 4.97
 -19 -14 29 1.94 5.1
 14 -19 29 -4.94 4.21
 -14 -19 29 -1.17 4.49
 -19 -16 29 3.6 4.41
 16 -19 29 -0.59 3.96
 -16 -19 29 5.21 4.37
 -19 -18 29 -8.3 4.77
 -18 -19 29 -4.19 4.74
 1 -20 29 -7.37 5.31
 20 1 -29 5.62 4.33
 -1 -20 29 4.66 5.36
 3 -20 29 4.58 5.13
 20 -3 -29 4.8 4.44
 20 3 -29 0.27 4.5
 -3 -20 29 3.21 5.51
 20 -5 -29 6.04 4.38
 5 -20 29 6.62 5.19
 -5 -20 29 6.67 5.33
 20 5 -29 1.22 4.27
 20 -7 -29 -1.5 4.44
 7 -20 29 5.12 5.08
 -20 -7 29 8.38 4.68
 -7 -20 29 3.79 5.23
 -20 -9 29 10.61 4.84
 20 -9 -29 8.83 4.55
 9 -20 29 10.15 4.97
 -9 -20 29 13.06 5.35
 20 9 -29 21.75 5.08
 20 -11 -29 8.11 4.74
 11 -20 29 5.15 4.74
 -20 -11 29 6.26 4.73
 -11 -20 29 4.78 4.31
 20 11 -29 -2.11 5
 20 -13 -29 0.62 4.42
 -20 -13 29 9.05 4.5
 13 -20 29 1.4 4.41
 -13 -20 29 7.96 5.12
 -20 -15 29 6.05 4.77
 15 -20 29 4.36 4.15
 -15 -20 29 1.19 4.4
 -20 -17 29 -2.45 4.7
 -17 -20 29 -1.2 4.37
 -20 -19 29 1.62 4.8
 -19 -20 29 1.74 4.7
 0 -21 29 34.44 5.81
 21 0 -29 26.76 4.69
 21 -2 -29 32.9 4.66
 21 2 -29 36.58 4.71
 -2 -21 29 40.23 5.47
 4 -21 29 24.64 5.42
 21 -4 -29 32.51 4.84
 21 4 -29 25.34 4.58
 6 -21 29 18.43 5.34
 -21 -6 29 19.26 4.9
 21 -6 -29 14.64 4.41
 -6 -21 29 15.24 4.94
 21 -8 -29 4.88 4.38
 -21 -8 29 6.35 4.96
 8 -21 29 15.24 5.24
 21 8 -29 1.17 4.53
 -8 -21 29 10.05 4.8
 -21 -10 29 4.7 4.55
 21 -10 -29 -3.23 4.36
 10 -21 29 7.45 4.87
 21 10 -29 0.85 4.93
 -10 -21 29 7.19 5.39
 -21 -12 29 3.61 5.15
 21 -12 -29 9.8 4.74
 12 -21 29 -6.8 4.63
 -12 -21 29 0.15 4.4
 14 -21 29 4.63 4.57
 21 -14 -29 4.22 4.48
 -21 -14 29 0.84 5.04
 -14 -21 29 2.39 5.16
 16 -21 29 10.42 5.67
 -21 -16 29 10.4 4.52
 -21 -18 29 -0.06 4.76
 -18 -21 29 -4.64 4.26
 22 -1 -29 7.34 4.41
 1 -22 29 6.44 5.63
 -1 -22 29 7.92 5.36
 22 1 -29 4.76 4.43
 22 -3 -29 18.85 4.56
 3 -22 29 10.85 5.62
 -3 -22 29 18.85 5.26
 22 3 -29 18.35 4.65
 22 -5 -29 21.54 4.63
 5 -22 29 30.31 5.55
 22 5 -29 22.89 4.56
 -5 -22 29 28.44 5.7
 -22 -7 29 28.69 5.15
 7 -22 29 34.88 5.6
 22 -7 -29 36.13 4.98
 22 7 -29 26.79 4.88
 -7 -22 29 24.82 5.33
 9 -22 29 23.65 5.41
 22 -9 -29 31.9 4.93
 -22 -9 29 28.46 5.13
 22 9 -29 30.65 4.87
 11 -22 29 11.11 5.01
 -22 -11 29 18.84 4.94
 -11 -22 29 20.58 5.41
 22 -13 -29 12.15 4.82
 -22 -13 29 9.69 4.73
 13 -22 29 20.75 4.76
 -13 -22 29 6.31 4.37
 15 -22 29 8.21 4.48
 22 -15 -29 -5.4 4.58
 -22 -15 29 -0.59 5.11
 -15 -22 29 0.82 5.02
 -22 -17 29 2.61 4.58
 -17 -22 29 4.64 4.89
 0 -23 29 11.06 5.54
 23 0 -29 3.86 4.43
 23 -2 -29 10.32 4.4
 2 -23 29 -0.88 5.47
 23 2 -29 18.25 4.68
 -2 -23 29 7.42 5.39
 4 -23 29 6.68 5.6
 23 -4 -29 6.48 4.56
 -4 -23 29 3.21 5.69
 23 4 -29 7.35 4.42
 6 -23 29 0.96 5.39
 23 -6 -29 4.07 4.44
 -6 -23 29 3.6 5.48
 23 6 -29 7.08 4.72
 8 -23 29 -0.43 5.24
 23 -8 -29 5.01 4.51
 -8 -23 29 -2.18 5.2
 23 8 -29 5.15 4.62
 10 -23 29 -7.55 5.04
 23 -10 -29 6.24 4.47
 -23 -10 29 -3.39 4.61
 -10 -23 29 -0.39 4.6
 23 10 -29 -2.43 4.72
 -23 -12 29 1.46 4.98
 23 -12 -29 5.12 4.5
 12 -23 29 5.95 4.87
 -12 -23 29 3.57 5.26
 23 -14 -29 -0.72 4.81
 -23 -14 29 -3.1 4.97
 14 -23 29 3.22 4.86
 -14 -23 29 4.94 4.3
 -23 -16 29 1.12 4.73
 23 -16 -29 7.12 4.83
 -16 -23 29 1.99 4.72
 1 -24 29 -10.77 5.85
 24 -1 -29 -4 4.37
 24 1 -29 2.24 4.61
 -1 -24 29 -1.54 5.31
 3 -24 29 1.24 5.48
 24 -3 -29 -2.25 4.49
 24 3 -29 1 4.34
 -3 -24 29 3.8 5.64
 24 -5 -29 1.02 4.68
 5 -24 29 -5.42 5.46
 -5 -24 29 3.99 5.64
 24 5 -29 5.71 4.6
 24 -7 -29 -0.07 4.63
 7 -24 29 4.61 5.27
 -7 -24 29 -0.36 5.49
 24 7 -29 3.57 4.7
 -24 -9 29 -0.31 4.69
 24 -9 -29 6.63 4.46
 -9 -24 29 1.14 4.89
 24 9 -29 3.41 4.79
 11 -24 29 13.02 5.05
 -24 -11 29 6.44 5.16
 24 -11 -29 3.54 4.48
 -11 -24 29 -1.66 4.7
 24 -13 -29 2.12 4.48
 13 -24 29 5.61 4.82
 -24 -13 29 5.96 5.09
 -13 -24 29 3.58 4.95
 0 -25 29 32.26 5.87
 25 0 -29 29.17 4.81
 2 -25 29 37.57 5.9
 25 -2 -29 30.14 4.94
 -2 -25 29 25.75 5.67
 25 2 -29 31.84 4.75
 4 -25 29 26.88 5.88
 25 -4 -29 15.58 4.54
 25 4 -29 12.51 4.54
 -4 -25 29 22.16 5.86
 25 -6 -29 13.66 4.68
 6 -25 29 14.75 5.62
 25 6 -29 5.6 4.8
 -6 -25 29 7.06 5.63
 25 -8 -29 -1.39 4.48
 25 8 -29 7.13 4.78
 -8 -25 29 0.73 5.29
 25 -10 -29 6.03 4.65
 10 -25 29 7 5.21
 -25 -10 29 -4.65 4.63
 -10 -25 29 2.47 4.61
 12 -25 29 8.65 4.98
 25 -12 -29 6.45 4.57
 -12 -25 29 2.17 5.27
 1 -26 29 3.87 5.86
 26 -1 -29 -2.48 4.53
 26 1 -29 -0.47 4.56
 -1 -26 29 -2.13 5.37
 26 -3 -29 -3.62 4.52
 3 -26 29 5.19 5.66
 -3 -26 29 3.78 5.42
 26 3 -29 9.15 4.48
 26 -5 -29 -0.73 4.51
 5 -26 29 12.7 5.44
 -5 -26 29 6.91 5.57
 26 5 -29 10.75 4.84
 7 -26 29 10.31 5.39
 26 -7 -29 13.3 4.65
 -7 -26 29 4.15 5.33
 26 7 -29 15.03 4.65
 -26 -9 29 -8.7 4.65
 9 -26 29 3.64 5.18
 26 -9 -29 0.21 4.6
 -9 -26 29 -1.27 4.63
 26 9 -29 1.38 4.76
 27 0 -29 9.01 4.67
 0 -27 29 2.4 5.9
 2 -27 29 11.74 5.53
 27 -2 -29 2.22 4.6
 -2 -27 29 3.91 5.38
 27 2 -29 8.23 4.55
 27 -4 -29 -2.16 4.47
 4 -27 29 7.09 5.56
 -4 -27 29 14.09 5.13
 27 4 -29 3.41 4.5
 6 -27 29 3.03 5.44
 27 -6 -29 4.35 4.64
 27 6 -29 8.45 4.48
 -6 -27 29 5.31 5.02
 28 -1 -29 6.42 4.61
 1 -28 29 2.22 5.33
 -1 -28 29 5.5 5.8
 28 1 -29 -0.82 4.47
 0 0 -30 3.73 3.78
 1 -1 -30 17.02 3.81
 1 1 -30 18.32 3.98
 -1 -1 -30 23.45 3.91
 0 -2 -30 92.95 6.58
 0 2 -30 106.96 6.83
 2 0 -30 102.01 6.67
 2 2 -30 -8.35 3.86
 2 -2 -30 -5.05 3.84
 3 -1 -30 29.48 4.05
 1 3 -30 34.53 4.02
 -1 -3 -30 36.03 3.93
 1 -3 -30 43.19 4.38
 3 -3 -30 39.44 4.35
 3 3 -30 31.35 3.91
 4 0 -30 117.62 7.25
 0 -4 30 124.76 7.5
 2 4 -30 273.74 12
 4 -2 -30 290.55 12.22
 2 -4 -30 279.31 12.12
 4 2 -30 294.47 12.25
 -2 -4 30 276.58 12.35
 4 4 -30 1.74 3.89
 4 -4 -30 1.84 4.19
 1 -5 30 54.09 4.54
 5 -1 -30 54.52 4.83
 1 5 -30 56.79 4.35
 -1 -5 30 58.59 4.63
 5 1 -30 48.79 4.39
 3 -5 30 110.8 6.76
 3 5 -30 115.07 7.15
 5 -3 -30 100.63 7.15
 5 3 -30 93.85 6.97
 -3 -5 30 109.31 7.23
 -5 -5 30 110.58 7.44
 5 5 -30 119.84 7.19
 0 -6 30 7.46 4.16
 6 0 -30 0.05 3.79
 -6 0 -30 1.87 2.97
 -6 2 -30 23.02 3.54
 6 -2 -30 21.41 3.93
 2 -6 30 32.12 4.33
 6 2 -30 28.09 4.1
 -6 -2 -30 33.78 3.29
 -2 -6 30 37.99 4.46
 4 -6 30 40.4 4.23
 4 6 -30 33.47 4.38
 -6 -4 30 35.12 4.53
 -4 -6 30 43.11 4.74
 6 4 -30 28.3 3.96
 6 -6 30 4.74 3.71
 6 6 -30 2.8 4.24
 -6 -6 30 -1.54 4.15
 7 -1 -30 26.29 4.3
 -7 1 -30 33.82 3.6
 -1 -7 30 31.45 4.36
 7 1 -30 36.15 4.09
 -7 -1 -30 43.82 3.59
 7 -3 -30 107.29 7.32
 3 7 -30 114.71 7.19
 3 -7 30 110.76 7.26
 -3 -7 30 116.37 7.65
 7 3 -30 113.99 7.15
 -7 -3 -30 105.33 6.03
 7 -5 -30 131.06 7.67
 -7 -5 30 114.4 7.82
 -5 -7 30 129.03 8.04
 7 5 -30 125.86 7.47
 7 -7 30 236.22 10.46
 7 7 -30 238.41 10.79
 -8 0 -30 107.85 6.24
 0 -8 30 106.56 7.22
 8 0 -30 107.58 7.12
 8 -2 -30 210.32 10.29
 2 -8 30 224.89 10.32
 -8 2 -30 224.88 9.65
 -8 -2 -30 226.57 9.6
 -2 -8 30 222.96 10.3
 8 2 -30 209.05 10.21
 8 -4 -30 16.31 4.25
 4 8 -30 13.84 4.06
 -8 -4 30 21.17 4.46
 4 -8 30 21.9 4.23
 -4 -8 30 21.54 4.42
 8 4 -30 18.62 3.91
 6 8 -30 49.74 4.92
 8 -6 -30 59.23 4.98
 -8 -6 30 50.45 4.54
 6 -8 30 62.4 4.57
 -6 -8 30 60.16 4.89
 -8 -8 30 0.58 4.31
 8 8 -30 8.63 3.89
 8 -8 30 4.93 3.55
 -9 1 -30 49.22 3.8
 1 -9 30 41.35 4.54
 1 9 -30 49.28 4.48
 -1 -9 30 47.78 4.93
 -9 -1 -30 42.35 3.74
 9 1 -30 55.42 5.02
 3 -9 30 156.74 8.33
 3 9 -30 148.03 8.21
 -9 3 -30 150.48 7.39
 9 -3 -30 160.47 8.3
 -3 -9 30 144.67 8.41
 9 3 -30 146.08 8.13
 -9 -3 -30 148.08 7.29
 9 -5 -30 148.98 8.34
 5 9 -30 152.17 8.26
 5 -9 30 145.22 8.03
 -9 5 -30 144.16 7.5
 -9 -5 30 140.2 8.56
 9 5 -30 161.24 8.21
 -5 -9 30 146.82 8.37
 -9 -7 30 216.26 10.73
 7 9 -30 233.45 10.73
 7 -9 30 233.67 10.34
 -7 -9 30 235.81 10.83
 9 -7 30 230.97 10.22
 9 7 -30 240.45 10.73
 -9 -9 30 214.44 10.51
 9 9 -30 232.96 10.35
 9 -9 30 213.39 9.87
 -10 0 -30 171.55 8.07
 10 0 -30 175.28 8.85
 0 -10 30 178.45 9.05
 2 10 -30 86.42 5.5
 2 -10 30 71.1 5.41
 10 -2 -30 84.88 5.71
 -10 2 -30 80.18 4.48
 -2 -10 30 82.32 5.82
 -10 -2 -30 68.45 4.31
 4 10 -30 134.65 7.83
 4 -10 30 119.34 7.43
 -10 -4 30 118.35 7.78
 -10 4 -30 117.13 6.68
 10 -4 -30 106.67 7.96
 -4 -10 30 117.67 7.74
 10 4 -30 127.39 7.56
 -10 -6 30 17.23 4.07
 10 -6 -30 18.64 4.05
 6 -10 30 19.6 4.12
 -10 6 -30 13.2 3.28
 10 6 -30 18.06 4.44
 8 -10 30 62.62 4.54
 -10 -8 30 55.67 4.89
 8 10 -30 62.29 5.14
 -8 -10 30 45.73 4.76
 10 -8 30 50.8 4.26
 10 -10 30 3.07 3.58
 -10 -10 30 1.5 3.94
 1 11 -30 29.8 4.55
 1 -11 30 27.01 4.63
 -11 1 -30 21.8 3.24
 11 -1 -30 19.23 4.18
 -11 -1 -30 23.19 3.06
 -1 -11 30 29 4.57
 3 -11 30 72.93 5.47
 -11 3 -30 76.84 5.16
 3 11 -30 76.44 5.39
 11 -3 -30 66.84 5.2
 -3 -11 30 72.9 5.61
 11 3 -30 81.31 6.39
 -11 -3 -30 66.78 5.11
 5 11 -30 107.16 7.73
 -11 -5 30 104.38 7.42
 5 -11 30 106.56 7.49
 11 -5 -30 114.08 7.55
 -11 5 -30 117.55 6.28
 -5 -11 30 113.34 7.92
 11 5 -30 117.72 7.38
 -11 -7 30 173.15 9.53
 7 -11 30 173.84 8.96
 7 11 -30 180.17 9.5
 11 -7 -30 187.4 9.24
 11 7 -30 187.65 9.47
 -7 -11 30 188.65 9.43
 9 -11 30 201.63 9.38
 9 11 -30 203.46 9.94
 -11 -9 30 197.21 9.91
 11 9 -30 199.83 9.8
 11 -9 30 195 9.02
 -9 -11 30 199.31 10.01
 -11 -11 30 164.95 9.15
 11 11 -30 182.66 9.42
 11 -11 30 176.11 8.37
 0 -12 30 0.18 4.43
 -12 0 -30 9.35 2.99
 12 0 -30 5.28 3.85
 2 -12 30 29.19 4.81
 2 12 -30 29.25 5.04
 -12 2 -30 33.71 3.26
 12 -2 -30 34.62 4.76
 -12 -2 -30 26.85 3.19
 12 2 -30 35.7 4.47
 4 12 -30 9.64 4.78
 12 -4 -30 2.05 4.08
 -12 4 -30 4.37 2.94
 -12 -4 30 1.75 4.12
 4 -12 30 -0.79 4.35
 -4 -12 30 2.1 4.74
 12 4 -30 4.12 3.92
 -12 6 -30 25.78 3.18
 12 -6 -30 19.24 4.39
 6 -12 30 19.91 4.46
 6 12 -30 23.74 4.6
 -12 -6 30 22.07 4.26
 -6 -12 30 17.07 4.82
 12 6 -30 16.15 4.39
 8 -12 30 3.92 4.21
 12 -8 -30 -3.43 4.22
 8 12 -30 -1.99 4.72
 -12 -8 30 1.61 4.33
 -8 -12 30 0.37 4.44
 12 8 -30 4.62 4.15
 10 12 -30 22.12 4.83
 10 -12 30 16.68 3.96
 -12 -10 30 11.04 4.5
 -10 -12 30 14.42 4.74
 12 10 -30 12.27 4.6
 12 -10 30 17.43 3.54
 12 12 -30 9.11 4.79
 12 -12 30 8.47 3.66
 -12 -12 30 2.88 4.57
 -13 1 -30 24.18 2.95
 1 -13 30 17.97 4.67
 13 -1 -30 22.85 4.21
 -1 -13 30 22.13 4.65
 -13 -1 -30 28.68 3.13
 13 1 -30 20.2 4.5
 3 -13 30 72.05 5.43
 13 -3 -30 62.38 4.95
 -13 -3 -30 69.09 4.86
 -13 -5 30 101.36 7.13
 -13 5 -30 95.72 5.34
 13 5 -30 81.58 7.03
 -5 -13 30 92.96 7.6
 7 13 -30 132.81 8.21
 13 -7 -30 115.85 7.75
 -13 -7 30 127.7 8.12
 7 -13 30 121.12 7.73
 13 7 -30 125.32 7.97
 -7 -13 30 131.07 8.13
 -13 -9 30 114.22 8.48
 9 13 -30 144.43 8.42
 9 -13 30 124.6 7.88
 13 9 -30 142.43 8.41
 -9 -13 30 134.08 8.42
 11 -13 30 101.6 6.94
 -13 -11 30 119.7 7.69
 -11 -13 30 120.95 7.81
 13 -11 30 104.23 6.4
 13 -13 30 85.02 6.12
 13 13 -30 95.18 6.48
 -13 -13 30 90.82 7.38
 0 -14 30 175.15 9.46
 -14 0 -30 178.06 7.87
 14 0 -30 177.17 9.34
 2 -14 30 129.89 8.21
 14 -2 -30 115.9 7.7
 14 2 -30 123.81 7.54
 -2 -14 30 135.13 8.21
 -14 -2 -30 124.56 6.28
 -14 -4 30 99.17 6.01
 4 -14 30 92.94 7.32
 -4 -14 30 85.31 5.97
 14 4 -30 80.51 6.96
 -14 -6 30 19.85 4.32
 14 -6 -30 23.17 4.48
 14 6 -30 26.15 4.47
 -6 -14 30 17.34 4.49
 -14 -8 30 30.67 4.86
 8 -14 30 28.43 4.56
 14 -8 -30 38.07 4.59
 14 8 -30 23.11 4.35
 -8 -14 30 26.79 4.6
 10 -14 30 3.27 4.32
 -14 -10 30 8.62 4.71
 -10 -14 30 3.08 4.38
 14 -10 30 9.44 3.27
 14 10 -30 14.44 4.39
 -14 -12 30 5.09 4.21
 12 -14 30 7.62 3.91
 14 -12 30 7.58 3.39
 14 12 -30 4.1 5.13
 -14 -14 30 -1.69 4.25
 14 -14 30 -1.09 3.65
 1 -15 30 -0.45 4.85
 15 -1 -30 3.99 4.19
 15 1 -30 5.69 4.43
 -15 -1 -30 0.38 2.76
 -1 -15 30 -2.96 4.53
 3 -15 30 -0.64 4.81
 15 -3 -30 6.08 4.2
 -3 -15 30 7.71 5.01
 15 3 -30 14 4.26
 5 -15 30 7.71 4.65
 -15 -5 30 2.92 4.26
 15 -5 -30 1.79 4.38
 15 5 -30 10.27 4.23
 -5 -15 30 11.91 4.57
 7 -15 30 20.18 4.63
 -15 -7 30 17.43 4.59
 15 -7 -30 14.23 4.55
 15 7 -30 16.18 4.34
 -7 -15 30 16.61 4.41
 15 -9 -30 32.13 4.8
 9 -15 30 31.92 4.67
 -15 -9 30 21.9 4.53
 15 9 -30 21.79 4.33
 -9 -15 30 22.9 4.56
 11 -15 30 33.59 4.44
 -15 -11 30 23.1 4.97
 15 -11 30 27.73 3.54
 -11 -15 30 36.31 5.31
 15 11 -30 25.86 4.99
 13 -15 30 12.88 4.04
 -15 -13 30 1.73 4.77
 15 -13 30 8.44 3.46
 -13 -15 30 10.47 4.27
 -15 -15 30 -2.23 4.8
 15 -15 30 0.52 3.61
 0 -16 30 112.94 8.03
 16 0 -30 124.95 7.98
 16 -2 -30 109.99 7.66
 2 -16 30 93.64 8.07
 -2 -16 30 110.76 7.84
 16 2 -30 104.39 7.45
 4 -16 30 80.02 5.75
 -16 -4 -30 69.05 4.88
 -16 -6 30 51.29 4.87
 16 -6 -30 53.52 4.95
 16 6 -30 45.37 4.81
 -6 -16 30 57.37 5.32
 16 -8 -30 18.05 4.31
 -16 -8 30 8.05 4.23
 8 -16 30 23.24 4.7
 -8 -16 30 11.74 4.8
 -16 -10 30 3.64 4.31
 16 -10 -30 6.92 4.17
 10 -16 30 13.38 4.48
 16 10 -30 13.01 4.75
 -10 -16 30 5.74 5.19
 -16 -12 30 -6.03 4.61
 12 -16 30 0.01 4.16
 -12 -16 30 2.91 4.26
 -16 -14 30 2.87 4.67
 14 -16 30 5.64 3.96
 -14 -16 30 4.16 5.01
 -16 -16 30 0.58 4.32
 1 -17 30 5.45 4.91
 17 -1 -30 -8.8 4.4
 17 1 -30 -1.19 4.41
 -1 -17 30 -10.03 4.82
 17 -3 -30 3.64 4.47
 3 -17 30 3.13 4.85
 -3 -17 30 1.7 5
 17 3 -30 1.47 4.53
 -17 -5 30 7.36 4.41
 17 -5 -30 11.86 4.18
 5 -17 30 8.41 4.86
 17 5 -30 18.35 4.61
 -5 -17 30 13.38 5.25
 17 -7 -30 13.71 4.5
 -17 -7 30 6.02 4.52
 7 -17 30 6.06 4.86
 17 7 -30 21.44 4.7
 -7 -17 30 16.61 5.14
 17 -9 -30 0.75 4.51
 -17 -9 30 9.85 4.54
 9 -17 30 13.03 4.6
 -9 -17 30 10.67 4.95
 17 9 -30 13.06 4.65
 17 -11 -30 11.58 4.54
 11 -17 30 2.88 4.36
 -11 -17 30 -3.89 4.41
 17 11 -30 6.32 5.02
 13 -17 30 4.85 4.21
 -17 -13 30 6.51 4.33
 -13 -17 30 -4.96 5.06
 15 -17 30 4.08 3.91
 -17 -15 30 0.68 4.54
 -15 -17 30 1.31 4.34
 -17 -17 30 12.14 4.67
 0 -18 30 -1.55 4.96
 18 0 -30 -4.24 4.1
 18 -2 -30 -0.17 4.25
 2 -18 30 0.56 5.3
 -2 -18 30 6.54 4.96
 18 2 -30 6.61 4.11
 18 -4 -30 4.41 4.42
 4 -18 30 -6.81 5.11
 -4 -18 30 0.45 4.63
 18 4 -30 6.28 4.46
 6 -18 30 -0.47 4.83
 -18 -6 30 -5.22 4.52
 18 -6 -30 1.64 4.11
 -6 -18 30 0.82 4.66
 18 6 -30 2.43 4.35
 -18 -8 30 5.78 4.82
 8 -18 30 1.67 4.78
 18 -8 -30 0.11 4.38
 -8 -18 30 -2.69 4.32
 18 8 -30 1.66 4.6
 18 -10 -30 -0.13 4.44
 10 -18 30 4.97 4.55
 -18 -10 30 6.49 4.63
 -10 -18 30 0.5 4.56
 18 10 -30 9.01 4.71
 12 -18 30 3.92 4.4
 18 -12 -30 -1.41 4.31
 -18 -12 30 1.07 5.11
 18 12 -30 5.63 5.16
 -12 -18 30 2.17 4.86
 -18 -14 30 5.42 5.15
 14 -18 30 -4.49 4.17
 -14 -18 30 1.97 4.45
 -18 -16 30 4.39 4.41
 16 -18 30 6.23 5.28
 -16 -18 30 0.65 4.61
 -18 -18 30 -4.5 4.83
 1 -19 30 -2.94 5.35
 19 -1 -30 -4.61 4.25
 -1 -19 30 -2.55 4.92
 19 1 -30 3.34 4.3
 3 -19 30 7.6 5.3
 19 -3 -30 8.17 4.3
 19 3 -30 0.96 4.5
 -3 -19 30 3.26 5.4
 5 -19 30 19.83 5.31
 19 -5 -30 16.88 4.7
 19 5 -30 19.65 4.38
 -5 -19 30 23.65 5.42
 19 -7 -30 12.27 4.46
 7 -19 30 18.01 5
 -19 -7 30 9.7 4.93
 -7 -19 30 12.21 5.29
 19 7 -30 6.88 4.46
 9 -19 30 22.21 4.87
 -19 -9 30 25.21 5.11
 19 9 -30 19.41 4.96
 -9 -19 30 16.64 5.26
 11 -19 30 8.62 4.55
 -19 -11 30 9.81 4.4
 19 -11 -30 -0.03 4.66
 19 11 -30 7.23 4.94
 -11 -19 30 6.14 4.39
 -19 -13 30 4.51 4.58
 13 -19 30 6.93 4.33
 19 -13 -30 0.26 4.26
 -13 -19 30 9.2 5.03
 -19 -15 30 -0.67 4.42
 15 -19 30 5.88 4.04
 -15 -19 30 2.49 4.29
 -19 -17 30 -1.43 4.85
 -17 -19 30 -1.27 4.71
 -19 -19 30 -6.46 4.94
 0 -20 30 0.39 5.36
 20 0 -30 10.91 4.29
 20 -2 -30 -0.93 4.44
 2 -20 30 -1.8 5.39
 20 2 -30 5.61 4.22
 -2 -20 30 -3.56 5.26
 20 -4 -30 2.73 4.35
 4 -20 30 -2.45 5.33
 20 4 -30 2.42 4.42
 -4 -20 30 8.37 4.84
 -20 -6 30 6.39 4.74
 20 -6 -30 5.07 4.28
 6 -20 30 7.87 5.22
 20 6 -30 1.28 4.44
 -6 -20 30 6.63 4.73
 -20 -8 30 6.52 4.7
 8 -20 30 4.99 5.04
 20 -8 -30 8.35 4.45
 20 8 -30 0.97 4.61
 10 -20 30 -3.97 4.8
 -20 -10 30 -0.26 4.88
 20 -10 -30 -1.92 4.32
 -10 -20 30 -3.9 5.01
 20 10 -30 7.74 4.97
 -20 -12 30 4.12 5.06
 12 -20 30 -4.14 4.55
 -12 -20 30 4.32 4.82
 14 -20 30 -6.54 4.37
 20 -14 -30 -1.52 4.34
 -20 -14 30 -8.73 5.07
 -14 -20 30 -1.32 4.73
 -20 -16 30 2.56 4.7
 16 -20 30 -0.6 6.58
 -16 -20 30 4.91 4.32
 -20 -18 30 -3.3 5.07
 -18 -20 30 4.35 4.8
 1 -21 30 -2.96 5.37
 21 -1 -30 -2.68 4.27
 -1 -21 30 -7.45 5.18
 21 1 -30 -4.39 4.29
 21 -3 -30 4.58 4.51
 21 3 -30 8.8 4.63
 -3 -21 30 1.3 5.32
 21 -5 -30 3.14 4.47
 5 -21 30 14.32 5.58
 -5 -21 30 5.36 5.33
 21 5 -30 14.89 4.33
 7 -21 30 8.32 5.09
 21 -7 -30 6.3 4.36
 21 7 -30 -0.01 4.67
 -7 -21 30 11.22 5.32
 -21 -9 30 3.32 4.95
 21 -9 -30 9.08 4.43
 9 -21 30 1.95 4.92
 -9 -21 30 -3.49 4.76
 21 9 -30 0.04 4.77
 11 -21 30 -6.8 4.67
 -21 -11 30 10.53 4.67
 21 -11 -30 -5.26 4.54
 -11 -21 30 5.21 4.56
 21 11 -30 -0.2 4.86
 13 -21 30 -0.52 4.52
 21 -13 -30 3.53 4.51
 -21 -13 30 4.58 4.86
 -13 -21 30 7.67 4.9
 -21 -15 30 0.34 4.46
 15 -21 30 -2.35 4.28
 21 -15 -30 -6.09 4.39
 -15 -21 30 -7.17 4.61
 -21 -17 30 -5.78 4.88
 -17 -21 30 -2.84 4.25
 0 -22 30 35.35 5.76
 22 0 -30 43.75 4.79
 22 -2 -30 30.77 4.72
 2 -22 30 26.64 5.64
 -2 -22 30 43.74 5.92
 22 2 -30 33.52 4.68
 22 -4 -30 15.38 4.61
 4 -22 30 27.69 5.59
 -4 -22 30 20.31 5.81
 22 4 -30 21.19 4.55
 6 -22 30 9.39 5.29
 22 -6 -30 7.89 4.5
 -6 -22 30 14.5 5.75
 22 6 -30 15.21 4.57
 22 -8 -30 9.93 4.52
 8 -22 30 0.97 5.11
 -22 -8 30 4.12 4.58
 -8 -22 30 5.76 5.42
 22 8 -30 10.16 4.95
 22 -10 -30 -1.08 4.42
 -22 -10 30 8.93 5
 10 -22 30 3.02 5.03
 -10 -22 30 -0.37 5
 22 10 -30 10.98 4.87
 12 -22 30 1.28 4.86
 22 -12 -30 -4.1 4.54
 -22 -12 30 7.97 5.07
 -12 -22 30 -1.18 4.47
 22 -14 -30 -0.2 4.58
 -22 -14 30 -0.78 5.33
 14 -22 30 -2.08 4.45
 -14 -22 30 -2.52 4.8
 22 -16 -30 -4.37 4.61
 -22 -16 30 6.03 4.69
 -16 -22 30 -3.84 4.85
 23 -1 -30 -3.13 4.38
 23 1 -30 -1.24 4.37
 -1 -23 30 -3.82 5.53
 23 -3 -30 13.75 4.77
 3 -23 30 3.48 5.36
 -3 -23 30 10.79 5.99
 23 3 -30 14.4 4.63
 5 -23 30 3.37 5.43
 -5 -23 30 12.08 5.54
 23 5 -30 15.85 4.44
 7 -23 30 20.07 5.37
 23 7 -30 25.58 4.83
 -7 -23 30 20.67 5.52
 -23 -9 30 15.15 5.07
 23 -9 -30 18.54 4.65
 9 -23 30 18.35 5.19
 23 9 -30 21.45 5.05
 -9 -23 30 22.71 5.6
 11 -23 30 19.19 4.99
 -23 -11 30 12.5 4.69
 23 -11 -30 15.76 4.57
 -11 -23 30 8.56 4.88
 -23 -13 30 7.31 4.78
 13 -23 30 6.56 4.75
 23 -13 -30 9.35 4.64
 -13 -23 30 5.74 4.68
 15 -23 30 7.4 4.54
 23 -15 -30 1.21 4.75
 -23 -15 30 0.83 4.7
 -15 -23 30 -1.84 4.51
 0 -24 30 -1.62 5.35
 24 0 -30 -3.93 4.43
 2 -24 30 6.99 5.8
 24 -2 -30 -2.4 4.32
 24 2 -30 7.24 4.68
 -2 -24 30 18.17 5.99
 24 -4 -30 5.15 4.58
 4 -24 30 3.52 5.61
 24 4 -30 3.52 4.36
 -4 -24 30 4.02 5.53
 24 -6 -30 10.14 4.62
 24 6 -30 4.4 4.59
 -6 -24 30 1.33 5.26
 24 -8 -30 9.46 4.47
 8 -24 30 6.18 5.28
 24 8 -30 7.64 4.57
 -8 -24 30 5.13 5.32
 -24 -10 30 -7.66 4.92
 10 -24 30 5.33 5.05
 -10 -24 30 0.88 5.3
 24 10 -30 1.81 4.77
 12 -24 30 -5.07 4.82
 24 -12 -30 2.08 4.48
 -24 -12 30 -4.8 5.26
 -12 -24 30 8.89 4.51
 25 -1 -30 1.21 4.6
 1 -25 30 9.79 5.61
 -1 -25 30 -5.83 5.63
 25 1 -30 10.86 4.64
 25 -3 -30 1.6 4.41
 3 -25 30 11.73 5.5
 25 3 -30 6.98 4.45
 5 -25 30 8.71 5.51
 25 -5 -30 12.15 4.62
 -5 -25 30 11.63 5.4
 25 5 -30 18.9 4.62
 7 -25 30 7.05 5.4
 25 -7 -30 19.27 4.66
 -7 -25 30 12.84 5.26
 25 7 -30 22.42 4.66
 -25 -9 30 12.71 5.06
 9 -25 30 21.2 5.37
 25 -9 -30 13.86 4.74
 25 9 -30 16 4.77
 -25 -11 30 7.73 4.7
 11 -25 30 15.28 5.08
 25 -11 -30 12.66 4.55
 -11 -25 30 24.43 5.27
 0 -26 30 5.47 5.38
 26 0 -30 3.86 4.56
 26 -2 -30 1.53 4.53
 2 -26 30 1.97 5.74
 26 2 -30 8.16 4.51
 -2 -26 30 13.31 5.85
 26 -4 -30 4.38 4.42
 4 -26 30 2.33 5.77
 -4 -26 30 11.69 5.88
 26 4 -30 6.83 4.57
 6 -26 30 5.05 5.58
 26 -6 -30 -1.79 4.67
 -6 -26 30 -3.97 5.44
 26 6 -30 4 4.48
 8 -26 30 8.47 5.28
 26 8 -30 12.66 4.56
 27 -1 -30 -6.27 4.45
 1 -27 30 -1.15 5.9
 27 1 -30 7.78 4.47
 -1 -27 30 -4.23 5.31
 3 -27 30 5.18 5.54
 27 -3 -30 4.25 4.53
 27 3 -30 13.61 4.56
 -3 -27 30 10.23 5.71
 27 -5 -30 6.87 4.56
 5 -27 30 -3.21 5.4
 -5 -27 30 10.9 5.88
 27 5 -30 12.02 4.65
 1 0 -31 26.69 3.9
 0 1 -31 16.53 3.8
 -1 0 -31 21.36 3.68
 0 -1 -31 21.68 3.92
 -1 -2 -31 16.62 3.84
 1 2 -31 12.88 4.01
 -1 2 -31 21.25 3.61
 2 1 -31 10.91 3.65
 1 -2 -31 11.86 4.15
 0 3 -31 23.83 3.65
 3 0 -31 18.17 3.65
 3 -2 -31 9.05 4.13
 -2 -3 -31 8.59 4.08
 2 -3 -31 10.01 3.92
 3 2 -31 6.61 3.71
 1 4 -31 18.09 3.94
 -1 -4 31 15.77 4.19
 4 1 -31 20.66 3.94
 1 -4 -31 10.21 3.8
 4 -3 -31 3.83 3.93
 3 4 -31 8.48 3.85
 3 -4 -31 0 3.98
 -3 -4 31 4.54 4.32
 4 3 -31 0.68 4.13
 5 0 -31 66.03 4.92
 0 -5 31 83.29 5.46
 0 5 -31 77.79 5.92
 2 5 -31 15.99 3.62
 5 -2 -31 18.78 4.23
 2 -5 31 22.39 4.06
 5 2 -31 20.19 4.33
 -2 -5 31 26.46 4.28
 5 -4 -31 20.03 4.07
 4 5 -31 13.14 3.65
 -5 -4 31 10.74 4.16
 5 4 -31 17.1 3.64
 -4 -5 31 25 4.46
 4 -5 -31 17.29 4.1
 1 -6 31 0.17 3.93
 1 6 -31 11.5 3.97
 6 -1 -31 -1.31 4.08
 -6 1 -31 6.23 3.07
 -1 -6 31 8.94 3.98
 -6 -1 -31 5.46 3.1
 6 1 -31 5.16 3.77
 6 -3 -31 -1.31 4.17
 3 -6 31 -3.23 3.79
 3 6 -31 -6.22 3.78
 -3 -6 31 -2.49 4.15
 6 3 -31 0.68 3.5
 5 -6 31 0.08 3.87
 6 -5 -31 1.35 3.63
 -6 -5 31 -4.34 4.22
 5 6 -31 -2.06 3.87
 -5 -6 31 3.24 4.38
 6 5 -31 -2.05 3.86
 7 0 -31 48.02 4.44
 -7 0 -31 49.77 3.83
 0 -7 31 62.55 4.99
 2 7 -31 4.11 4.12
 7 -2 -31 8.53 3.96
 7 2 -31 8.47 4.08
 -2 -7 31 4.29 3.96
 4 -7 31 10.78 3.9
 4 7 -31 8.27 4.26
 -7 -4 31 4.85 3.98
 7 -4 -31 16.86 4.35
 -4 -7 31 8.95 4.04
 6 7 -31 2.87 4.54
 7 -6 -31 -0.96 4
 6 -7 31 1.55 3.72
 7 6 -31 0.26 4.37
 -6 -7 31 1.21 3.91
 -8 1 -31 14.65 3.34
 -8 -1 -31 9.12 3.25
 3 8 -31 -2.27 4.04
 -8 3 -31 -3.65 3.14
 3 -8 31 -2.92 4.08
 8 -3 -31 5.46 4.03
 8 3 -31 3.02 3.73
 -3 -8 31 -2.31 4.39
 -8 -3 -31 0.11 3.05
 5 -8 31 -4.24 4.05
 -8 -5 31 5.53 4.25
 8 -5 -31 6.49 3.89
 5 8 -31 1.21 4.38
 8 5 -31 0.76 3.86
 7 -8 31 -3.58 3.68
 7 8 -31 2.86 4.5
 -8 -7 31 1.35 4.18
 8 7 -31 -9.14 4.21
 8 -7 31 -1.32 3.52
 -7 -8 31 -8.57 3.93
 -9 0 -31 94.16 5.83
 9 0 -31 90.79 6.74
 0 -9 31 83.91 5.64
 9 -2 -31 35.07 4.21
 2 -9 31 44.02 4.53
 2 9 -31 36 4.35
 -2 -9 31 31.4 4.38
 -9 -2 -31 38.42 3.61
 9 -4 -31 40.99 4.77
 -9 -4 31 40.25 4.88
 -9 4 -31 38.2 3.71
 4 -9 31 35.39 4.47
 4 9 -31 37.56 4.75
 9 4 -31 35.87 4.55
 -4 -9 31 35.75 4.46
 6 9 -31 10.52 4.22
 9 -6 -31 0.06 4.27
 6 -9 31 7.13 3.93
 -9 -6 31 4.04 4.3
 9 6 -31 -2.74 4.18
 -6 -9 31 4.76 4.67
 8 9 -31 6.16 4.36
 -9 -8 31 5.63 4.27
 -8 -9 31 8.66 4.05
 9 -8 31 0.74 3.6
 9 8 -31 1.79 4.24
 -10 1 -31 -0.97 3.08
 10 -1 -31 -3.1 4.1
 1 -10 31 9.65 4.35
 1 10 -31 2.25 4.1
 10 1 -31 -5.04 4
 -10 3 -31 1.16 3.14
 10 -3 -31 6.34 3.96
 3 10 -31 1.5 4.02
 3 -10 31 -1.62 4.4
 10 3 -31 0.78 3.68
 -10 -3 -31 7.47 3.04
 -3 -10 31 2.38 4.46
 5 -10 31 -1.72 4.08
 -10 5 -31 0.81 3.23
 -10 -5 31 2.54 4.13
 10 -5 -31 6.78 4.06
 5 10 -31 7.3 4.32
 -5 -10 31 4.88 4.14
 10 5 -31 4.24 4.06
 7 10 -31 4.89 4.12
 -10 -7 31 14.67 4.62
 7 -10 31 3.3 3.98
 10 -7 -31 2.21 4.03
 -7 -10 31 3.36 4.52
 10 7 -31 12.43 4.39
 -10 -9 31 -2.79 4.12
 9 10 -31 0.11 4.33
 9 -10 31 4.15 3.73
 10 -9 31 4.68 3.56
 -9 -10 31 9.69 4.48
 10 9 -31 2.88 4.36
 0 -11 31 34.65 5.08
 11 0 -31 20.87 4.23
 0 11 -31 33.97 4.35
 -11 0 -31 28.91 3.39
 2 11 -31 8.17 4.13
 -11 2 -31 7.45 2.88
 11 -2 -31 9.24 4.12
 2 -11 31 0.93 4.41
 -2 -11 31 2.96 4.77
 11 2 -31 2.67 3.79
 -11 -2 -31 1.95 2.96
 11 -4 -31 10.03 4.63
 -11 4 -31 9.6 3.26
 4 11 -31 5.7 4.57
 4 -11 31 8.82 4.31
 11 4 -31 7.25 4.16
 -4 -11 31 7 4.37
 11 -6 -31 1.47 4.33
 6 -11 31 4.6 4.11
 6 11 -31 -3.53 4.3
 11 6 -31 5.8 3.93
 -6 -11 31 7.49 4.57
 8 -11 31 5.57 3.86
 8 11 -31 6.31 4.49
 -8 -11 31 -3.33 4.34
 11 8 -31 5.01 4.4
 10 11 -31 9.25 4.63
 -11 -10 31 12 4.47
 11 -10 31 7 3.6
 -10 -11 31 -0.22 4.18
 11 10 -31 7.2 4.6
 -12 1 -31 1.16 2.95
 1 12 -31 3.79 4.74
 12 -1 -31 9.03 4.34
 1 -12 31 10.84 4.79
 -1 -12 31 5.52 4.76
 -12 -1 -31 -1.23 2.88
 12 1 -31 -0.72 4.01
 3 12 -31 4.72 4.77
 3 -12 31 -0.31 4.37
 -12 3 -31 2.28 2.92
 12 -3 -31 -5.82 3.95
 12 3 -31 -2.55 4.11
 -12 -3 -31 -0.75 2.91
 12 -5 -31 -5.1 4.17
 -12 -5 31 -3.47 3.92
 5 -12 31 -0.04 4.28
 5 12 -31 3 4.48
 -12 5 -31 -0.39 2.98
 12 5 -31 -0.41 4.15
 -5 -12 31 3.67 4.38
 -12 -7 31 -1.62 4.36
 12 -7 -31 7.7 4.54
 7 12 -31 5.44 4.99
 7 -12 31 -2.01 4.26
 12 7 -31 0.12 4.09
 -7 -12 31 7.82 4.08
 -12 -9 31 0.38 4.19
 9 12 -31 6.85 4.89
 9 -12 31 9.99 3.96
 -9 -12 31 6.26 4.33
 12 9 -31 -2.9 4.5
 12 -9 31 4.09 3.53
 11 12 -31 5.98 5.01
 -12 -11 31 1.67 4.67
 12 -11 31 4.95 3.58
 -11 -12 31 3.53 4.07
 -13 0 -31 43.37 3.5
 0 -13 31 49.57 5.51
 2 -13 31 24.08 4.86
 13 -2 -31 16.78 4.24
 -13 2 -31 19.19 3.11
 13 2 -31 15.89 4.34
 -13 -2 -31 14.12 3.06
 -2 -13 31 22.21 4.96
 -13 4 -31 17.66 3.02
 13 -4 -31 13.35 4.36
 4 -13 31 19.08 4.61
 -13 -4 31 12.77 4.29
 4 13 -31 25.88 4.75
 13 4 -31 25.21 4.23
 -4 -13 31 28.34 4.67
 -13 -6 31 2.56 4.03
 6 13 -31 11.25 4.85
 13 -6 -31 1.08 4.1
 -6 -13 31 0.57 4.52
 13 6 -31 5.51 4.12
 13 -8 -31 16.42 4.6
 8 -13 31 11.3 4.27
 -8 -13 31 1.71 4.46
 13 8 -31 6.17 4.34
 10 13 -31 5.72 4.83
 -13 -10 31 -3.03 4.34
 10 -13 31 6.88 4.06
 13 10 -31 5.32 4.52
 13 -10 31 -1.83 3.38
 -10 -13 31 6.21 4.33
 12 13 -31 12.13 4.9
 -13 -12 31 -3.76 4.5
 12 -13 31 -6.24 3.73
 13 12 -31 6.36 4.71
 13 -12 31 0.89 3.66
 -12 -13 31 2.24 4.05
 1 -14 31 1.67 4.8
 14 -1 -31 3.56 4.36
 14 1 -31 5.87 4.28
 3 -14 31 9.62 4.72
 -14 3 -31 14.97 2.85
 14 -3 -31 9.19 4.29
 -14 -3 -31 11.32 2.94
 -3 -14 31 11.79 4.66
 14 3 -31 8.92 4.05
 14 -5 -31 15.79 4.67
 5 -14 31 16.93 4.68
 -5 -14 31 13.17 4.68
 14 5 -31 7.2 4.21
 -14 -7 31 31.36 4.95
 7 -14 31 30.65 4.65
 14 -7 -31 24.76 4.47
 14 7 -31 20.19 4.46
 -7 -14 31 22.01 4.94
 9 -14 31 8.1 4.36
 14 -9 -31 4.49 4.17
 -14 -9 31 13.32 4.79
 14 9 -31 8.55 4.33
 -9 -14 31 17.62 4.72
 11 -14 31 9.83 4.11
 -14 -11 31 13.36 4.52
 -11 -14 31 6.84 4.25
 14 11 -31 13.61 4.65
 14 -11 31 11.11 3.53
 -14 -13 31 6.82 5.03
 13 -14 31 -2.69 3.78
 -13 -14 31 0.8 4.59
 14 -13 31 0.53 3.54
 0 -15 31 6.92 4.58
 15 0 -31 -5.18 3.99
 -15 0 -31 -0.27 2.69
 2 -15 31 7.65 4.68
 15 -2 -31 -4.11 3.96
 15 2 -31 -1.43 3.9
 -15 -2 -31 2.81 2.73
 -2 -15 31 2.04 5.01
 4 -15 31 -4.18 4.66
 15 -4 -31 -5.78 4.09
 15 4 -31 8.31 4.18
 -15 -4 -31 -3.57 2.74
 -4 -15 31 -4.73 4.48
 -15 -6 31 5.47 4.28
 6 -15 31 -4.26 4.72
 15 -6 -31 -4.55 4.37
 15 6 -31 2.1 4.35
 -6 -15 31 -1.34 4.74
 -15 -8 31 -0.45 4.11
 8 -15 31 -2.14 4.6
 -8 -15 31 -9.01 4.7
 15 8 -31 0.33 4.29
 -15 -10 31 -0.72 4.38
 10 -15 31 8.7 4.27
 15 -10 -31 -0.84 4.11
 -10 -15 31 2.97 4.37
 15 10 -31 6.61 4.52
 12 -15 31 -4.5 4.04
 -15 -12 31 2.83 4.46
 -12 -15 31 9.17 4.28
 15 12 -31 -1.37 5.23
 15 -12 31 -0.08 3.32
 -15 -14 31 -0.36 4.56
 14 -15 31 0.49 3.76
 15 -14 31 -3.2 3.42
 -14 -15 31 -3.14 4.65
 16 -1 -31 3.27 4.39
 1 -16 31 -10.12 5.03
 -16 -1 -31 -3.72 2.68
 -1 -16 31 -2.05 4.75
 16 1 -31 9.17 4.46
 3 -16 31 7.1 4.96
 -3 -16 31 3.21 4.9
 16 3 -31 3.38 4.49
 16 -5 -31 -1.9 4.11
 -16 -5 31 -2.49 4.2
 5 -16 31 1.85 4.75
 -5 -16 31 3.99 4.48
 16 5 -31 3.54 4.69
 16 -7 -31 2.11 4.62
 -16 -7 31 -0.6 4.3
 7 -16 31 11.71 4.69
 16 7 -31 4.22 4.54
 -7 -16 31 1.57 4.47
 9 -16 31 9.26 4.54
 16 -9 -31 6.69 4.55
 -16 -9 31 -0.7 4.56
 -9 -16 31 4.29 4.42
 16 -11 -31 8.73 4.37
 11 -16 31 3.55 4.27
 -16 -11 31 1.02 4.45
 16 11 -31 12.79 4.78
 -11 -16 31 -1.45 4.62
 13 -16 31 2.45 4.08
 -16 -13 31 1.95 4.23
 -13 -16 31 6.77 4.97
 -16 -15 31 1.81 4.65
 15 -16 31 0.8 3.7
 -15 -16 31 -3.47 4.29
 0 -17 31 -7.56 4.97
 17 0 -31 -4.68 3.94
 2 -17 31 -9.24 4.8
 17 -2 -31 -1 4.19
 17 2 -31 -1.19 3.95
 -2 -17 31 -1.41 4.88
 4 -17 31 -5.93 4.76
 17 -4 -31 -6.46 4.47
 17 4 -31 2.46 4.29
 -4 -17 31 -1.92 4.96
 6 -17 31 -10.34 4.68
 17 -6 -31 -1.01 4.16
 -6 -17 31 9.11 4.68
 17 6 -31 5.15 4.49
 -17 -8 31 2.5 4.95
 8 -17 31 5.55 4.67
 -8 -17 31 -7.8 4.5
 17 8 -31 -1.98 4.7
 17 -10 -31 5.05 4.3
 10 -17 31 -5.62 4.44
 -17 -10 31 2.86 4.49
 -10 -17 31 -0.75 5.1
 17 10 -31 1.07 4.62
 12 -17 31 -5.27 4.22
 -17 -12 31 -1.3 4.96
 17 -12 -31 -6.3 4.38
 17 12 -31 0.14 5.3
 -12 -17 31 11.16 4.73
 14 -17 31 9.46 4.08
 -17 -14 31 5.47 5.09
 -14 -17 31 -2.46 4.46
 -17 -16 31 1.32 4.38
 -16 -17 31 -2.73 4.44
 18 -1 -31 1.04 4.44
 1 -18 31 6.04 4.93
 -1 -18 31 -8.15 5.08
 18 -3 -31 1.22 4.09
 3 -18 31 5.98 5.02
 18 3 -31 1.62 4.28
 -3 -18 31 5.3 4.89
 5 -18 31 5.45 4.91
 18 -5 -31 3.16 4.57
 18 5 -31 8.77 4.21
 -5 -18 31 4.13 5.1
 7 -18 31 8.42 4.82
 -18 -7 31 2.55 4.46
 18 -7 -31 4.37 4.36
 18 7 -31 -4.47 4.29
 -18 -9 31 3.22 4.94
 9 -18 31 3.42 4.65
 18 -9 -31 2.31 4.36
 -9 -18 31 13.68 4.99
 18 9 -31 3.89 4.71
 -18 -11 31 0.67 4.36
 11 -18 31 -2.34 4.52
 18 -11 -31 -0.05 4.63
 18 11 -31 9.69 4.97
 -11 -18 31 -0.16 4.32
 -18 -13 31 -4.5 4.71
 13 -18 31 3.02 4.26
 -13 -18 31 5.31 5.07
 15 -18 31 1.83 3.94
 -18 -15 31 -3.68 4.25
 -15 -18 31 2.7 4.22
 -18 -17 31 -0.65 4.89
 -17 -18 31 -4.21 4.82
 0 -19 31 -10.46 4.88
 19 0 -31 -0.75 4.18
 2 -19 31 3.85 5.09
 19 -2 -31 3.46 4.63
 -2 -19 31 2.01 5.41
 19 2 -31 8.51 4.28
 19 -4 -31 -3.9 4.18
 4 -19 31 7.31 5.02
 -4 -19 31 1.36 4.97
 19 4 -31 1.49 4.53
 19 -6 -31 -2.79 4.27
 6 -19 31 5.5 4.98
 -6 -19 31 4.47 4.66
 19 6 -31 7.02 4.36
 8 -19 31 10.29 4.78
 19 -8 -31 -2.02 4.45
 -19 -8 31 3.19 4.26
 -8 -19 31 1.24 4.47
 19 8 -31 1.2 4.39
 19 -10 -31 1.55 4.49
 10 -19 31 -6.76 4.64
 -19 -10 31 -1.82 4.98
 19 10 -31 3.23 4.78
 -10 -19 31 2.4 4.92
 12 -19 31 5.7 4.46
 -19 -12 31 6.52 4.6
 19 -12 -31 2.57 4.46
 -12 -19 31 -3.18 4.92
 19 12 -31 -6.5 5.27
 -19 -14 31 -2.75 4.58
 14 -19 31 0.07 4.24
 -14 -19 31 1.61 4.35
 -19 -16 31 4.24 4.81
 -16 -19 31 4.92 4.73
 -19 -18 31 -1.95 5.13
 -18 -19 31 -2.78 5
 1 -20 31 -7.02 5.13
 20 -1 -31 5.45 4.22
 -1 -20 31 0.63 5.15
 20 1 -31 0.97 4.29
 20 -3 -31 2.28 4.55
 3 -20 31 2.82 5.16
 -3 -20 31 -9.78 5
 20 3 -31 -5.96 4.38
 20 -5 -31 -4.34 4.32
 5 -20 31 -1.74 5.14
 20 5 -31 -4.62 4.36
 -5 -20 31 4.98 5.21
 -20 -7 31 -4.91 4.34
 20 -7 -31 -9.18 4.19
 7 -20 31 -8.48 4.93
 20 7 -31 11.03 4.65
 -7 -20 31 -2.02 5.19
 -20 -9 31 -1.88 4.39
 20 -9 -31 -0.43 4.22
 9 -20 31 3.76 4.91
 20 9 -31 4.47 4.8
 -9 -20 31 -4.65 4.88
 11 -20 31 1.6 4.74
 20 -11 -31 -5.36 4.71
 -11 -20 31 -0.12 4.4
 20 11 -31 3.31 4.78
 13 -20 31 4.57 4.47
 -20 -13 31 3.12 5.06
 20 -13 -31 -5.25 4.33
 -13 -20 31 -1.23 5.17
 15 -20 31 -4.25 4.17
 -20 -15 31 1.16 4.52
 -15 -20 31 2.3 4.32
 -20 -17 31 -0.49 5.13
 -17 -20 31 9.33 4.83
 0 -21 31 0.84 5.32
 21 0 -31 6.58 4.46
 2 -21 31 -5.54 5.2
 21 -2 -31 3.14 4.32
 -2 -21 31 6.54 5.4
 21 2 -31 3.02 4.32
 21 -4 -31 -5.04 4.46
 4 -21 31 0.5 5.3
 -4 -21 31 6.86 5.53
 21 4 -31 -0.87 4.67
 6 -21 31 -0.29 5.1
 21 -6 -31 1.47 4.58
 21 6 -31 6.81 4.26
 -6 -21 31 3.29 5.12
 8 -21 31 -6.88 4.98
 -21 -8 31 -1.99 4.48
 21 -8 -31 -8.04 4.59
 21 8 -31 6.83 4.76
 -8 -21 31 -7.21 5.15
 -21 -10 31 -4.55 4.83
 10 -21 31 -1.25 4.76
 21 -10 -31 5.96 4.45
 -10 -21 31 -9.79 5.12
 21 10 -31 -0.37 5.1
 -21 -12 31 -1.91 4.46
 12 -21 31 -3.06 4.55
 21 -12 -31 0.9 4.66
 -12 -21 31 0.5 4.47
 21 -14 -31 0.96 4.49
 14 -21 31 7.06 4.41
 -21 -14 31 2.29 4.55
 -14 -21 31 4.67 5.09
 -21 -16 31 1.06 4.88
 -16 -21 31 0.9 4.3
 1 -22 31 0.09 5.47
 22 -1 -31 6.79 4.47
 22 1 -31 -1.33 4.37
 -1 -22 31 -1.99 5.51
 3 -22 31 -9.73 5.17
 22 -3 -31 1.04 4.33
 -3 -22 31 -0.74 5.47
 22 3 -31 3.86 4.46
 5 -22 31 -3.59 5.24
 22 -5 -31 -3.71 4.38
 22 5 -31 1.14 4.46
 -5 -22 31 4.33 4.97
 7 -22 31 -6.74 5.2
 22 -7 -31 5.62 4.39
 -7 -22 31 0.31 4.75
 22 7 -31 -1.36 4.32
 9 -22 31 -6.85 5.07
 -22 -9 31 -1.02 4.42
 22 -9 -31 -0.84 4.38
 -9 -22 31 -3.92 4.68
 11 -22 31 4.89 4.92
 -22 -11 31 0.78 4.97
 22 11 -31 -3.3 4.94
 -11 -22 31 7.34 5.26
 13 -22 31 2.95 4.61
 -22 -13 31 0.34 5.15
 22 -13 -31 -7.91 4.59
 -13 -22 31 -7.74 4.37
 -22 -15 31 -1.81 4.61
 22 -15 -31 -7.1 4.53
 15 -22 31 0.19 4.87
 -15 -22 31 -5.58 5.11
 0 -23 31 -5.27 5.56
 23 0 -31 8.88 4.43
 23 -2 -31 8.81 4.52
 2 -23 31 2.65 5.67
 23 2 -31 1.2 4.45
 -2 -23 31 -2.92 5.48
 23 -4 -31 -4.4 4.66
 4 -23 31 0.43 5.51
 23 4 -31 0.29 4.58
 -4 -23 31 4.38 5.04
 6 -23 31 -4.49 5.38
 23 -6 -31 1.1 4.55
 -6 -23 31 2.07 4.98
 23 -8 -31 -9.53 4.58
 -23 -8 31 -0.65 4.6
 8 -23 31 -0.85 5.19
 -8 -23 31 -3.23 4.7
 10 -23 31 -3.89 4.88
 23 -10 -31 5.05 4.39
 -10 -23 31 -0.58 4.54
 23 10 -31 -4.74 4.75
 -23 -12 31 -3.65 4.53
 12 -23 31 -8.31 4.7
 23 -12 -31 2.38 4.61
 -12 -23 31 -2.53 5.06
 -23 -14 31 3.34 4.76
 23 -14 -31 -2.57 4.7
 14 -23 31 6.99 4.67
 -14 -23 31 5.76 4.26
 24 -1 -31 1.48 4.36
 1 -24 31 8.62 5.42
 24 1 -31 3.1 4.41
 -1 -24 31 1.76 5.93
 24 -3 -31 5.86 4.47
 3 -24 31 -6.94 5.49
 -3 -24 31 -0.38 5.14
 24 3 -31 -0.44 4.59
 5 -24 31 -0.75 5.38
 24 -5 -31 2.83 4.54
 24 5 -31 -7.53 4.48
 -5 -24 31 -0.21 5.27
 7 -24 31 -5.84 5.32
 24 -7 -31 -4.27 4.51
 -7 -24 31 -7.12 5.08
 24 7 -31 6.83 4.62
 9 -24 31 -6.39 5.15
 24 -9 -31 15.06 4.49
 -9 -24 31 6.25 4.64
 24 9 -31 2.9 4.73
 11 -24 31 0.42 4.9
 -24 -11 31 -0.37 4.94
 -11 -24 31 -3.92 4.62
 24 -13 -31 8.3 4.62
 -24 -13 31 7.5 5.12
 -13 -24 31 -0.2 4.96
 0 -25 31 10.16 5.72
 25 -2 -31 1.98 4.49
 2 -25 31 4.83 5.67
 25 2 -31 6.26 4.66
 -2 -25 31 3.85 5.37
 4 -25 31 -2.41 5.42
 25 -4 -31 -4.26 4.42
 25 4 -31 -2.54 4.41
 -4 -25 31 -2.26 5.14
 25 -6 -31 4.74 4.63
 6 -25 31 4.37 5.32
 25 6 -31 6.01 4.62
 -6 -25 31 -6.76 5.31
 8 -25 31 -2.71 5.17
 -8 -25 31 -7.25 4.93
 25 8 -31 3.4 4.57
 10 -25 31 -3.57 5.05
 -25 -10 31 -10.33 4.93
 25 -10 -31 4.81 4.45
 -10 -25 31 6.7 4.49
 26 -1 -31 -5.67 4.5
 1 -26 31 2.59 5.38
 -1 -26 31 -4.67 5.96
 26 1 -31 8.58 4.53
 3 -26 31 4.03 5.59
 26 -3 -31 0.8 4.49
 -3 -26 31 8.26 5.3
 26 3 -31 3.51 4.42
 5 -26 31 7.56 5.47
 26 5 -31 2.15 4.5
 -5 -26 31 2.76 5.1
 7 -26 31 8.62 5.32
 26 -7 -31 -0.22 4.62
 -7 -26 31 -0.38 5.05
 26 7 -31 1.12 4.48
 0 -27 31 13.38 5.53
 27 0 -31 5.95 4.6
 2 -27 31 11.66 5.83
 -2 -27 31 15.91 5.95
 27 -4 -31 5.71 4.5
 4 -27 31 15.86 5.69
 27 4 -31 -3.57 4.47
 -4 -27 31 1.14 5.16
 1 1 -32 -0.11 3.53
 -1 1 -32 -6.04 3.28
 1 -1 -32 -7.31 3.74
 -1 -1 -32 -3.03 3.44
 0 -2 -32 162.01 8.37
 0 2 -32 161.67 8.27
 2 0 -32 177.69 8.65
 2 2 -32 75.11 5.02
 2 -2 -32 81.27 5.31
 1 3 -32 4.22 3.6
 -1 -3 -32 3.99 3.52
 -1 3 -32 11.63 3.51
 1 -3 -32 7.6 3.85
 3 1 -32 4.91 3.79
 3 -3 -32 -5.14 3.7
 3 3 -32 -0.06 3.74
 0 -4 -32 109.42 7.48
 0 4 -32 129.35 7.02
 4 0 -32 135.52 7.38
 4 -2 -32 55.08 4.92
 2 4 -32 46.29 4.49
 4 2 -32 55.7 4.62
 -2 -4 32 43.34 4.86
 2 -4 -32 55.86 4.63
 4 4 -32 72.79 5.02
 1 5 -32 5.51 3.59
 5 -1 -32 7.93 3.98
 1 -5 32 8.57 3.88
 5 1 -32 5.4 4.2
 -1 -5 32 -0.25 3.87
 -1 5 -32 16.97 5.41
 3 5 -32 4.02 3.74
 3 -5 32 3.22 4.05
 5 -3 -32 10.5 4.21
 5 3 -32 6.82 3.89
 -3 -5 32 9.6 4.37
 3 -5 -32 9.75 4
 5 5 -32 1.99 3.58
 5 -5 -32 3.39 3.91
 6 0 -32 54.63 4.54
 0 -6 32 70.98 5.21
 0 6 -32 74.88 5.84
 -6 0 -32 61.2 4.11
 2 6 -32 6.33 3.74
 6 -2 -32 -2.14 3.7
 2 -6 32 5.16 4.05
 -2 -6 32 0.59 4.07
 6 2 -32 3.02 3.61
 4 6 -32 13.38 3.75
 4 -6 32 7.46 3.85
 6 -4 -32 18.63 4.18
 -6 -4 32 17.17 4.06
 6 4 -32 10.18 3.66
 -4 -6 32 11.79 4.52
 -6 -6 32 -2.48 4.26
 6 -6 -32 7.73 3.73
 6 6 -32 -5.78 4.03
 7 -1 -32 7.72 4.02
 1 7 -32 9.78 4.03
 7 1 -32 10.07 4.05
 -7 -1 -32 11.84 3.21
 7 -3 -32 2.01 3.8
 3 -7 32 -2.64 3.87
 3 7 -32 2.39 4.08
 7 3 -32 8.2 4
 -7 -3 -32 0.96 3
 -3 -7 32 -6.5 3.93
 5 -7 32 1.12 3.94
 -7 -5 32 5.57 4.11
 7 -5 -32 -1.33 4.19
 5 7 -32 5.24 4.1
 7 5 -32 2.64 4.25
 -5 -7 32 1.27 3.96
 -7 -7 32 -0.51 4.2
 7 -7 32 0.99 3.82
 7 7 -32 4.33 4.4
 8 0 -32 25 3.96
 0 -8 32 26.7 4.4
 -8 0 -32 30.68 3.63
 2 -8 32 -0.91 4.08
 2 8 -32 0.59 4.08
 -8 2 -32 1.28 3.34
 8 -2 -32 -3.96 4.15
 -8 -2 -32 -0.27 3.01
 -2 -8 32 -2.51 4.4
 8 2 -32 -2.49 3.73
 8 -4 -32 3.25 3.85
 -8 -4 32 -2.33 3.94
 4 -8 32 3.61 4.11
 4 8 -32 2.33 4.06
 8 4 -32 -2.76 3.6
 -4 -8 32 8.32 4.53
 -8 -6 32 6.05 3.84
 6 -8 32 1.15 3.75
 8 -6 -32 -7.43 3.85
 -6 -8 32 0.13 4.29
 8 6 -32 -1.88 4.22
 -8 -8 32 1.32 4.22
 8 -8 32 -3.49 3.79
 8 8 -32 -5.65 4.3
 9 -1 -32 0.49 3.69
 1 -9 32 5.52 4.32
 -9 1 -32 1.72 3.1
 -1 -9 32 -1.36 4.09
 -9 -1 -32 2.31 3.04
 9 1 -32 3.27 3.91
 3 -9 32 7.01 4.38
 3 9 -32 9.11 4.33
 -9 3 -32 1.99 3.13
 9 -3 -32 0.06 4.15
 -9 -3 -32 2.17 3.05
 -3 -9 32 7.44 4.05
 9 3 -32 0.8 4.11
 5 -9 32 -3.28 3.92
 9 -5 -32 4.68 4.55
 -9 -5 32 1.4 4.34
 5 9 -32 8.21 4.04
 9 5 -32 -1.28 3.92
 -5 -9 32 -1.65 4.49
 -9 -7 32 -2.56 3.99
 7 9 -32 1.72 3.92
 9 -7 -32 6.38 4.39
 7 -9 32 0.11 3.81
 -7 -9 32 2.85 4.19
 9 7 -32 11.87 4.31
 9 -9 32 -6 3.69
 9 9 -32 11.02 4.42
 -9 -9 32 1.43 4.41
 -10 0 -32 5.39 3.1
 10 0 -32 3.74 3.99
 0 -10 32 -1.64 4.06
 10 -2 -32 22.46 4.19
 2 10 -32 20.42 4.16
 -10 2 -32 21.34 3.26
 -2 -10 32 19.31 4.45
 10 2 -32 19.74 4.02
 -10 -2 -32 24.68 3.25
 10 -4 -32 9.81 4.04
 4 -10 32 2.12 4.18
 4 10 -32 4.51 4.15
 -10 -4 32 2.32 4.54
 -10 4 -32 4.17 3.45
 -4 -10 32 5.03 4.09
 10 4 -32 2.43 3.69
 6 10 -32 4.77 4.22
 6 -10 32 2.99 3.94
 -10 -6 32 -1.2 4.61
 -6 -10 32 5.19 4.6
 10 6 -32 2.12 4.22
 -10 -8 32 0.28 4.07
 8 10 -32 -3.92 4.05
 8 -10 32 7.65 3.91
 -8 -10 32 1.86 4.2
 10 8 -32 -4.7 4.07
 10 -8 32 0.24 3.55
 -10 -10 32 11.68 4.14
 10 -10 32 4.58 3.65
 10 10 -32 8.76 4.32
 -11 1 -32 2.36 3.08
 1 -11 32 7.31 4.29
 11 -1 -32 6.53 4.15
 1 11 -32 9.53 4.28
 -1 -11 32 1.4 4.5
 11 1 -32 2.29 4.09
 -11 -1 -32 7.46 3.01
 3 -11 32 -4.47 4.42
 11 -3 -32 -0.23 4.45
 -11 3 -32 -2.78 3.09
 3 11 -32 6.54 4.37
 -11 -3 -32 -3.71 2.87
 11 3 -32 2.75 4.04
 -3 -11 32 1.39 4.45
 11 -5 -32 3.32 4.4
 -11 -5 32 0.02 4.08
 5 -11 32 5.98 4.35
 5 11 -32 -0.93 4.49
 11 5 -32 10.35 3.98
 -5 -11 32 1.85 4.41
 7 -11 32 7.91 4.13
 -11 -7 32 1.03 4.12
 11 -7 -32 4.05 4.09
 7 11 -32 -0.03 4.92
 -7 -11 32 -1.41 4.14
 11 7 -32 2.4 4.5
 9 11 -32 4.86 4.81
 9 -11 32 2.75 3.97
 -11 -9 32 -3.55 4.5
 -9 -11 32 1.62 4.41
 11 -9 32 -4.36 3.55
 11 9 -32 5.03 4.36
 11 11 -32 -4.26 4.6
 11 -11 32 -5.38 3.65
 -11 -11 32 -0.5 4.27
 -12 0 -32 7.51 3.14
 12 0 -32 5.79 4.11
 0 -12 32 3.17 4.52
 2 12 -32 17.58 4.84
 12 -2 -32 11.79 4.08
 -12 2 -32 17.93 3
 2 -12 32 13.19 4.49
 -12 -2 -32 13.78 3.09
 -2 -12 32 14.66 4.55
 12 2 -32 19.7 4.23
 -12 4 -32 1.98 3.09
 12 -4 -32 -6.17 4
 4 -12 32 0.71 4.38
 4 12 -32 10.94 4.68
 12 4 -32 5.99 3.8
 -4 -12 32 3.18 4.37
 6 -12 32 3.99 4.24
 6 12 -32 -0.27 4.5
 -12 -6 32 -2.61 4.39
 12 -6 -32 -5.12 4.35
 -12 6 -32 -2.95 3.04
 -6 -12 32 -0.95 4.66
 12 6 -32 2.51 4.29
 8 12 -32 5.02 4.49
 12 -8 -32 2.66 4.1
 8 -12 32 5.64 4.05
 -12 -8 32 6.95 4.02
 -8 -12 32 4.98 4.7
 12 8 -32 -2.5 4.53
 -12 -10 32 6.42 4.07
 10 12 -32 2.52 4.78
 10 -12 32 1.59 3.84
 12 -10 32 5.48 3.6
 -10 -12 32 -2.99 4.73
 12 12 -32 9.91 4.98
 -12 -12 32 7.93 4.58
 12 -12 32 2.08 3.74
 13 -1 -32 6.03 4.3
 1 -13 32 12.5 4.63
 -13 1 -32 0.12 2.86
 -13 -1 -32 3.48 2.96
 13 1 -32 3.57 4.21
 -1 -13 32 8.28 4.75
 3 13 -32 14.26 4.6
 13 -3 -32 3.85 4.37
 -3 -13 32 12.07 4.53
 -13 -3 -32 3.69 2.97
 13 3 -32 7.28 3.77
 5 -13 32 8.07 4.43
 -13 5 -32 -3.42 2.88
 -13 -5 32 -2.05 4
 13 -5 -32 1.47 4.32
 5 13 -32 -3.89 4.5
 13 5 -32 -4.26 4.2
 13 -7 -32 3.63 4.43
 7 13 -32 4.7 5.13
 7 -13 32 2.1 4.43
 -13 -7 32 -1.17 4.46
 -7 -13 32 -2.74 4.77
 13 7 -32 -0.11 4.48
 9 13 -32 3.09 5.3
 9 -13 32 0.6 4.07
 -13 -9 32 5.38 4.62
 -9 -13 32 -3.22 4.62
 13 9 -32 7.88 4.69
 11 -13 32 -0.9 3.96
 11 13 -32 4.61 5.3
 -13 -11 32 -0.41 3.96
 13 -11 32 -1.27 3.61
 -11 -13 32 -1.7 4.66
 13 11 -32 9.96 4.74
 -13 -13 32 8.16 4.54
 13 13 -32 -0.36 4.97
 13 -13 32 -4.85 3.7
 14 0 -32 25.16 4.27
 0 -14 32 26.07 4.9
 -14 0 -32 32.87 3.25
 2 -14 32 59.34 5.33
 14 -2 -32 48.68 4.77
 14 2 -32 58.57 4.74
 -2 -14 32 59.13 5.49
 -14 -2 -32 56.61 3.71
 14 -4 -32 13.6 4.33
 4 -14 32 26.59 4.93
 -14 4 -32 27.47 2.97
 -4 -14 32 15.36 4.99
 14 4 -32 23.82 4.58
 -14 -4 -32 20.21 3.07
 -14 -6 32 5.14 4.63
 14 -6 -32 12.89 4.44
 6 -14 32 15.41 4.62
 14 6 -32 20.75 4.71
 -6 -14 32 17.48 5.05
 8 -14 32 1.49 4.41
 14 -8 -32 -1.49 4.51
 -14 -8 32 -3.73 4.07
 14 8 -32 -0.54 4.54
 -8 -14 32 3.37 4.61
 -14 -10 32 3.34 4.7
 10 -14 32 -3.86 4.12
 14 -10 -32 -2.54 4.53
 14 10 -32 -4.04 4.54
 -10 -14 32 8.8 4.67
 -14 -12 32 7.04 4.02
 12 -14 32 2.06 3.89
 14 -12 32 3.37 3.5
 -12 -14 32 5.55 4.75
 14 12 -32 9.28 4.82
 14 -14 32 5.74 3.62
 -14 -14 32 8.61 4.15
 15 -1 -32 5.95 4.34
 1 -15 32 -5.96 4.91
 -15 -1 -32 1.3 2.88
 -1 -15 32 7.26 5.06
 15 1 -32 1.69 4.4
 3 -15 32 -5.78 4.92
 15 -3 -32 -5.79 4.15
 -3 -15 32 4.34 4.68
 15 3 -32 -7.27 4.25
 -15 -3 -32 0.26 2.81
 5 -15 32 4.52 4.72
 -15 -5 32 10.71 4.13
 15 -5 -32 7.07 4.29
 15 5 -32 2.99 4.55
 -5 -15 32 14.74 5.1
 15 -7 -32 12.86 4.37
 7 -15 32 11.76 4.75
 -7 -15 32 11.12 5.04
 15 7 -32 11.7 4.62
 15 -9 -32 2.46 4.59
 -15 -9 32 6.27 4.09
 9 -15 32 9.86 4.44
 15 9 -32 7.6 4.69
 -9 -15 32 14.2 4.92
 11 -15 32 2.67 4.21
 -15 -11 32 5.59 4.58
 -11 -15 32 3.21 4.81
 15 11 -32 -2.12 4.63
 -15 -13 32 9.95 4.24
 13 -15 32 0.23 3.88
 15 -13 32 9.24 3.42
 15 13 -32 1.24 5.49
 -13 -15 32 6.95 4.34
 -15 -15 32 -3.74 4.7
 15 -15 32 3.83 3.5
 -16 0 -32 18.9 2.64
 16 0 -32 15.78 4.15
 0 -16 32 10 4.8
 2 -16 32 26.92 4.95
 16 -2 -32 28.7 4.35
 -2 -16 32 37.74 5.19
 -16 -2 -32 27.5 3.15
 16 2 -32 20.75 4.15
 4 -16 32 3.67 4.73
 16 -4 -32 17.33 4.62
 -4 -16 32 9.91 4.88
 -16 -4 -32 7.33 2.97
 16 4 -32 9.12 4.2
 16 -6 -32 10.32 4.23
 6 -16 32 17.55 4.77
 -16 -6 32 13.36 4.71
 -6 -16 32 9.12 5.11
 16 6 -32 13.94 4.43
 -16 -8 32 8.29 4.69
 16 -8 -32 3.76 4.33
 8 -16 32 1.15 4.58
 -8 -16 32 11.68 5.15
 16 8 -32 15.55 4.83
 -16 -10 32 -2.31 4.48
 16 -10 -32 6.44 4.19
 16 10 -32 10.34 4.7
 -10 -16 32 2.38 4.92
 12 -16 32 10.86 4.22
 -16 -12 32 2.63 4.97
 -12 -16 32 -1.93 4.19
 16 12 -32 2.66 5.17
 14 -16 32 2.93 3.9
 -16 -14 32 7.37 4.87
 -14 -16 32 8.66 4.86
 -16 -16 32 -3.17 4.26
 17 -1 -32 2.55 4.27
 1 -17 32 -3.37 5.19
 17 1 -32 -6.82 4.33
 -1 -17 32 -7.87 4.98
 3 -17 32 -6.28 5.08
 17 -3 -32 9.48 4.16
 -3 -17 32 -3.6 4.85
 17 3 -32 2.13 4.22
 17 -5 -32 -1.57 4.37
 17 5 -32 4.47 4.31
 -5 -17 32 0.67 4.56
 -17 -7 32 2.72 4.22
 7 -17 32 4.63 4.8
 17 -7 -32 8.75 4.42
 -7 -17 32 8.37 4.86
 17 7 -32 4.37 4.3
 17 -9 -32 -0.82 4.46
 -17 -9 32 0.33 4.7
 9 -17 32 6.01 4.58
 -9 -17 32 -6.02 4.45
 17 9 -32 -0.57 4.8
 -17 -11 32 -4.45 4.4
 17 -11 -32 -5.84 4.37
 11 -17 32 1.55 4.42
 17 11 -32 6.13 4.87
 -11 -17 32 -0.68 4.37
 -17 -13 32 -0.06 4.55
 13 -17 32 4.85 4.17
 -13 -17 32 9.73 5.16
 15 -17 32 -2.63 3.81
 -17 -15 32 5.31 4.15
 -15 -17 32 7.76 4.18
 -17 -17 32 -6.01 4.87
 18 0 -32 19.32 4.26
 0 -18 32 18.48 5.42
 2 -18 32 18.87 5.17
 18 2 -32 26.83 4.41
 -2 -18 32 27.38 5.2
 18 -4 -32 11.71 4.2
 4 -18 32 17.04 5.18
 18 4 -32 14.05 4.66
 -4 -18 32 10.9 5.39
 -18 -6 32 4.63 4.18
 6 -18 32 14.29 4.86
 18 -6 -32 13.31 4.4
 18 6 -32 9.81 4.37
 -6 -18 32 8.9 4.81
 18 -8 -32 1.62 4.51
 -18 -8 32 9.78 4.22
 8 -18 32 -3.32 4.74
 18 8 -32 10.98 4.53
 -8 -18 32 -2.59 4.6
 -18 -10 32 -3.49 4.85
 18 -10 -32 3.54 4.46
 10 -18 32 2.14 4.57
 18 10 -32 11.3 4.74
 -10 -18 32 -6.4 4.99
 -18 -12 32 -1.95 4.35
 18 -12 -32 -5.26 4.48
 12 -18 32 9.92 4.36
 18 12 -32 1.06 5.4
 -12 -18 32 0.56 4.79
 -18 -14 32 7.29 4.39
 14 -18 32 7.22 4.12
 -14 -18 32 -0.47 4.36
 -18 -16 32 3.84 4.83
 -16 -18 32 -4.26 4.7
 -18 -18 32 -7.68 4.89
 19 -1 -32 4.44 4.17
 1 -19 32 2.17 5.04
 -1 -19 32 -0.78 5.31
 19 1 -32 -1.2 4.38
 3 -19 32 2.44 4.93
 19 -3 -32 -4.13 4.5
 -3 -19 32 -1.95 4.75
 19 3 -32 2.72 4.23
 19 -5 -32 6.37 4.21
 5 -19 32 8.77 5.02
 19 5 -32 11.15 4.53
 -5 -19 32 10.62 5.07
 -19 -7 32 -0.83 4.52
 19 -7 -32 6.95 4.23
 7 -19 32 2.47 4.93
 19 7 -32 3.27 4.38
 -7 -19 32 13.49 5.13
 19 -9 -32 6.02 4.18
 9 -19 32 -2.32 4.64
 -19 -9 32 3.99 4.26
 -9 -19 32 1.5 4.85
 19 -11 -32 5.5 4.75
 -19 -11 32 12.46 4.9
 11 -19 32 5.98 4.69
 19 11 -32 -0.44 4.74
 -11 -19 32 2.66 4.33
 -19 -13 32 6.93 5.24
 19 -13 -32 -1.09 4.38
 13 -19 32 0.55 4.39
 -13 -19 32 3.26 4.95
 15 -19 32 3.5 4.08
 -19 -15 32 9.82 4.72
 -15 -19 32 3.3 4.45
 -19 -17 32 8.56 4.83
 -17 -19 32 0.92 4.95
 -19 -19 32 -3.99 4.58
 0 -20 32 3.98 5.33
 20 0 -32 12.66 4.35
 2 -20 32 6.31 5.08
 20 -2 -32 4.81 4.39
 -2 -20 32 7.14 5.31
 20 2 -32 0.69 4.37
 4 -20 32 2.66 5.04
 20 -4 -32 -1.49 4.52
 20 4 -32 4.91 4.49
 -4 -20 32 3.8 5.48
 6 -20 32 6.62 5.1
 20 -6 -32 6.27 4.43
 20 6 -32 7.08 4.48
 20 -8 -32 -10.8 4.45
 -20 -8 32 -4.03 4.71
 8 -20 32 0.26 4.97
 -8 -20 32 -0.53 4.88
 20 8 -32 0 4.59
 10 -20 32 5.25 4.83
 -20 -10 32 10.02 4.38
 20 -10 -32 7.27 4.59
 20 10 -32 5.5 5.12
 -20 -12 32 6.67 4.6
 20 -12 -32 -4.06 4.58
 12 -20 32 3.66 4.51
 -12 -20 32 5.73 4.92
 20 12 -32 6.16 5.27
 20 -14 -32 1.66 4.47
 14 -20 32 7.25 4.36
 -20 -14 32 2.22 4.35
 -14 -20 32 10.31 4.51
 -20 -16 32 13.26 5.25
 -16 -20 32 6 4.76
 -20 -18 32 8.24 4.5
 -18 -20 32 11.19 5.12
 21 -1 -32 -2.14 4.28
 1 -21 32 -11.5 5.4
 -1 -21 32 6.72 5.4
 21 1 -32 -0.44 4.38
 21 -3 -32 8.9 4.33
 3 -21 32 5.05 5.2
 -3 -21 32 -1.61 5.12
 21 3 -32 -3.79 4.33
 21 -5 -32 4.19 4.41
 5 -21 32 -5.2 5.2
 21 5 -32 4.96 4.7
 -5 -21 32 0.64 4.69
 21 -7 -32 5.16 4.33
 -21 -7 32 4.84 4.73
 7 -21 32 -4.09 5.01
 -7 -21 32 -1.65 4.72
 21 7 -32 -4.33 4.56
 21 -9 -32 -1.26 4.32
 9 -21 32 -1.84 4.84
 -21 -9 32 -9.07 4.7
 21 9 -32 8.76 4.67
 -9 -21 32 3.06 4.51
 11 -21 32 0.86 4.66
 -21 -11 32 0.17 4.94
 21 -11 -32 5.48 4.55
 21 11 -32 4.86 5.01
 -11 -21 32 3.12 4.65
 -21 -13 32 3.71 4.92
 13 -21 32 6.57 4.55
 -13 -21 32 -5.56 4.97
 15 -21 32 -0.48 4.65
 21 -15 -32 2.27 4.51
 -21 -15 32 0.87 4.93
 -15 -21 32 0.67 4.27
 0 -22 32 9.21 5.53
 22 0 -32 6.74 4.48
 2 -22 32 14.36 5.65
 22 -2 -32 7.91 4.45
 22 2 -32 5.75 4.36
 -2 -22 32 11.46 5.18
 4 -22 32 8.09 5.49
 22 -4 -32 5.73 4.42
 -4 -22 32 14.31 5.35
 22 4 -32 8.03 4.44
 22 -6 -32 8.6 4.45
 -6 -22 32 1.91 5.34
 22 6 -32 8.42 4.75
 8 -22 32 11.16 5.11
 22 -8 -32 5.93 4.35
 -22 -8 32 6.07 4.91
 22 8 -32 11.59 4.72
 -8 -22 32 0.36 5.17
 22 -10 -32 -7.29 4.49
 -22 -10 32 0.63 4.49
 10 -22 32 8.08 4.91
 22 10 -32 3.37 4.82
 -10 -22 32 -1.67 4.74
 12 -22 32 -8.51 4.65
 -22 -12 32 -5 4.73
 22 -12 -32 -9.24 4.36
 -12 -22 32 -1.6 4.32
 -22 -14 32 4.98 4.59
 14 -22 32 5.77 4.53
 22 -14 -32 -2.03 4.56
 -14 -22 32 5.46 5.04
 1 -23 32 12.25 5.52
 23 -1 -32 12.18 4.51
 -1 -23 32 1.45 5.35
 3 -23 32 -2.6 5.47
 23 -3 -32 10.62 4.54
 -3 -23 32 3.89 5.47
 23 3 -32 6.21 4.52
 5 -23 32 -0.73 5.3
 23 5 -32 -0.85 4.51
 -5 -23 32 5.66 5.6
 7 -23 32 -1.28 5.23
 23 -7 -32 4.66 4.6
 -7 -23 32 -7.94 5.53
 23 7 -32 7.4 4.81
 -23 -9 32 -0.09 4.94
 23 -9 -32 5.4 4.39
 9 -23 32 -1.45 5.03
 23 9 -32 4.53 4.85
 -9 -23 32 7.81 5.35
 -23 -11 32 4.49 4.85
 11 -23 32 5.66 4.8
 23 -11 -32 -3.93 4.61
 -11 -23 32 2.23 4.79
 23 11 -32 -1.54 5.04
 -23 -13 32 8.95 4.93
 13 -23 32 4.84 4.75
 23 -13 -32 1.6 4.41
 -13 -23 32 3.95 4.39
 0 -24 32 13.4 5.79
 2 -24 32 4.04 5.33
 24 -2 -32 5.23 4.33
 -2 -24 32 -0.55 5.35
 24 2 -32 5 4.46
 4 -24 32 -9.41 5.31
 24 -4 -32 -0.96 4.56
 -4 -24 32 -1.19 5.68
 24 4 -32 -1.06 4.54
 6 -24 32 -4.81 5.27
 24 -6 -32 12.32 4.56
 24 6 -32 4.5 4.8
 -6 -24 32 -0.2 5.57
 24 -8 -32 3.47 4.38
 24 8 -32 5.32 4.91
 -8 -24 32 -6.33 5.45
 10 -24 32 -1.89 4.88
 24 -10 -32 0.09 4.47
 -24 -10 32 -5.91 4.6
 -10 -24 32 6.97 5.23
 24 10 -32 1.71 5.05
 24 -12 -32 5.58 4.58
 12 -24 32 2.77 4.72
 -24 -12 32 5.68 4.83
 -12 -24 32 -4.09 4.49
 25 -1 -32 6.58 4.47
 1 -25 32 6.88 5.68
 -1 -25 32 -6.71 5.27
 25 1 -32 3.86 4.59
 3 -25 32 6.05 5.76
 25 3 -32 5.07 4.66
 -3 -25 32 0.39 5.65
 5 -25 32 -4.67 5.53
 25 -5 -32 5.75 4.56
 25 5 -32 1.51 4.75
 -5 -25 32 1.56 5.74
 25 -7 -32 -5.72 4.6
 7 -25 32 3.12 5.21
 -7 -25 32 -1.87 5.33
 25 7 -32 6.35 4.86
 9 -25 32 -2.05 5.06
 25 -9 -32 -0.41 4.42
 -9 -25 32 -4.85 5.41
 25 9 -32 -1.63 4.83
 26 0 -32 -2.2 4.58
 0 -26 32 -0.13 5.74
 2 -26 32 5.5 5.47
 26 -2 -32 3.14 4.55
 26 2 -32 7.7 4.62
 -2 -26 32 1.06 5.36
 26 -4 -32 6.23 4.45
 4 -26 32 4.05 5.37
 26 4 -32 4.09 4.62
 -4 -26 32 -3.65 5.65
 26 -6 -32 6.54 4.68
 6 -26 32 3.18 5.37
 26 6 -32 10.42 4.77
 -6 -26 32 -6.93 5.62
 -1 0 -33 280.78 11.3
 0 1 -33 252.18 11.37
 1 2 -33 333.89 13.41
 -1 -2 -33 312.32 13.31
 -1 2 -33 335.74 13.22
 2 1 -33 297.14 13.29
 0 3 -33 18.13 3.67
 3 0 -33 22.26 3.96
 -2 -3 -33 -0.38 3.33
 2 3 -33 -1.32 3.73
 3 -2 -33 -4.31 4.07
 2 -3 -33 -1.87 3.71
 3 2 -33 -4.02 3.76
 1 4 -33 169.47 8.06
 4 1 -33 151.15 8.21
 1 -4 -33 156.75 8.31
 3 4 -33 9.96 3.98
 3 -4 -33 21 4.2
 4 3 -33 18.75 4.18
 0 -5 33 102.03 7
 5 0 -33 99.72 6.97
 0 5 -33 120.16 6.94
 5 2 -33 201.78 9.26
 -2 -5 33 190.36 9.37
 2 -5 -33 180.77 9.19
 4 5 -33 72.51 6.1
 5 -4 -33 68.04 5.08
 4 -5 -33 75.56 5.2
 5 4 -33 83.89 6.41
 1 -6 33 111.64 7.67
 6 -1 -33 125.38 7.46
 6 1 -33 125.68 7.28
 -1 -6 33 130.65 7.81
 -6 -1 -33 115.31 6.52
 6 -3 -33 -0.92 4.13
 3 6 -33 0.63 3.61
 3 -6 33 -6.75 3.91
 6 3 -33 1.59 3.59
 -3 -6 33 3.98 4.3
 5 -6 33 103.18 6.76
 6 -5 -33 104.2 7.28
 -6 -5 33 102.15 7.34
 5 6 -33 111.81 7.22
 6 5 -33 93.25 6.86
 -5 -6 33 97.53 7.29
 -5 6 -33 109.25 6.64
 0 -7 33 4.79 4.15
 7 0 -33 11.92 3.78
 -7 0 -33 6.73 3.28
 2 -7 33 20.81 4.28
 2 7 -33 32.84 4.33
 7 -2 -33 23.06 4.04
 7 2 -33 26.61 4.15
 -7 -2 -33 29.23 3.26
 -2 -7 33 23.95 4.24
 7 -4 -33 -3.03 4.1
 -7 -4 33 1.37 4.28
 4 -7 33 2.02 3.91
 4 7 -33 -1.9 3.84
 -4 -7 33 -0.12 3.9
 7 4 -33 -0.04 3.97
 7 -6 -33 12.61 4.14
 6 7 -33 21.15 4.13
 -7 -6 33 16.41 4.33
 6 -7 33 17.4 4.04
 -6 -7 33 15.69 4.01
 8 -1 -33 31.55 4.31
 8 1 -33 34.05 4.26
 -8 -1 -33 34.7 3.42
 -1 -8 33 42.74 4.59
 3 -8 33 11.19 4.27
 3 8 -33 14.77 4.03
 8 -3 -33 6.33 4.04
 -8 -3 -33 13.28 3.18
 -3 -8 33 14.51 4.6
 8 3 -33 5.74 3.61
 5 8 -33 36.72 4.17
 8 -5 -33 20.79 4.29
 5 -8 33 27.78 4.22
 -8 -5 33 25.84 4.34
 -5 -8 33 33.47 4.79
 8 5 -33 32.85 4.23
 7 -8 33 0.56 3.99
 -8 -7 33 18.14 4.45
 8 -7 -33 16.42 4.56
 7 8 -33 9.15 3.93
 -7 -8 33 10.37 3.99
 8 7 -33 7.06 4.56
 9 0 -33 314.6 13.58
 0 9 -33 331.32 13.51
 -9 0 -33 337.03 13.12
 0 -9 33 307.85 13.63
 2 -9 33 322.47 14.29
 9 -2 -33 350.35 14.21
 9 2 -33 348.62 14.19
 -9 -2 -33 351.92 13.72
 -2 -9 33 324.34 14.27
 -9 4 -33 205.23 8.75
 9 -4 -33 189.12 9.53
 4 -9 33 181.17 9.33
 4 9 -33 174.35 9.63
 9 4 -33 188.06 9.3
 -4 -9 33 200.99 9.58
 6 9 -33 147.32 8.18
 6 -9 33 138.46 7.94
 9 -6 -33 145.64 8.25
 -9 -6 33 148.21 8.49
 -6 -9 33 147.34 8.4
 -9 -8 33 89.29 5.66
 8 -9 33 80.75 6.26
 9 8 -33 82.33 5.76
 9 -8 33 79.99 5.08
 -8 -9 33 68.35 5.35
 10 -1 -33 9.96 4.23
 1 -10 33 21.54 4.63
 1 10 -33 17.9 4.13
 -10 1 -33 17.92 3.33
 -10 -1 -33 13.76 3.1
 -1 -10 33 5.38 4.19
 10 1 -33 13.6 4.32
 -10 3 -33 10.13 3.13
 3 -10 33 2.61 4.16
 3 10 -33 10.18 3.98
 10 -3 -33 0.84 4.04
 10 3 -33 5.48 3.71
 -3 -10 33 2.05 4.12
 -10 -3 -33 8.45 3.08
 -10 5 -33 -0.09 3.27
 5 -10 33 -9.18 4.17
 -10 -5 33 -1.12 4.08
 5 10 -33 0.65 4.49
 10 -5 -33 0.95 3.99
 -5 -10 33 3.35 4.44
 10 5 -33 5.52 4.13
 7 10 -33 9.22 4.69
 7 -10 33 1.18 3.99
 10 -7 -33 2.87 4.5
 -7 -10 33 8.75 4.26
 10 7 -33 6.71 3.89
 -10 -9 33 5.37 4.2
 9 -10 33 -1.44 3.8
 9 10 -33 8.1 4.53
 10 9 -33 -1.44 4.19
 10 -9 33 -3.64 3.73
 -9 -10 33 4.41 4.45
 -11 0 -33 12.37 3.13
 11 0 -33 16.33 4.19
 0 -11 33 8.28 4.25
 2 11 -33 27.22 4.57
 -11 2 -33 35.41 3.42
 2 -11 33 36.6 4.97
 11 -2 -33 31.44 4.61
 11 2 -33 24.24 4.11
 -11 -2 -33 31.32 3.47
 -2 -11 33 26.86 4.43
 4 -11 33 12.54 4.17
 4 11 -33 18.32 4.68
 11 -4 -33 5.8 4.48
 -11 4 -33 9.03 3.31
 -4 -11 33 4.82 4.26
 -11 -4 -33 6.89 3.04
 11 4 -33 16.34 4.33
 11 -6 -33 20.16 4.58
 -11 6 -33 18.07 3.32
 6 11 -33 20.22 4.44
 6 -11 33 22.97 4.44
 -11 -6 33 13.77 4.35
 11 6 -33 14.82 4.47
 -6 -11 33 19.04 4.82
 -11 -8 33 4.09 4.52
 8 -11 33 -0.43 3.99
 8 11 -33 6.44 4.52
 11 -8 -33 1.31 4.35
 -8 -11 33 -0.21 4.36
 11 8 -33 4.45 4.18
 10 11 -33 9.55 4.81
 -11 -10 33 11.95 4.66
 10 -11 33 5.59 3.84
 11 10 -33 7.6 4.21
 -10 -11 33 4.58 4.19
 11 -10 33 3.8 3.74
 12 -1 -33 4.42 3.85
 1 -12 33 0.58 4.43
 -12 1 -33 0.2 3.09
 1 12 -33 -0.78 4.64
 -12 -1 -33 1.41 3.05
 -1 -12 33 -7.65 4.26
 12 1 -33 3.5 3.95
 -12 3 -33 39.94 3.49
 12 -3 -33 40.97 4.49
 3 -12 33 49.01 4.93
 12 3 -33 39.78 4.5
 -3 -12 33 40.23 4.73
 -12 -3 -33 39.21 3.51
 5 12 -33 10.66 4.32
 -12 5 -33 9.05 3.22
 12 -5 -33 9.18 4.13
 5 -12 33 9.24 4.41
 -12 -5 33 11.74 4.35
 12 5 -33 16.59 4.32
 -5 -12 33 10.88 4.79
 12 -7 -33 24.38 4.62
 7 12 -33 22.12 4.82
 -12 -7 33 20.65 3.97
 7 -12 33 21.63 4.33
 12 7 -33 15.83 4.3
 -7 -12 33 16.4 4.39
 12 -9 -33 8.76 4.63
 9 12 -33 12.44 4.92
 9 -12 33 14.43 4.05
 -12 -9 33 4.15 4.01
 -9 -12 33 5.12 4.24
 12 9 -33 11.08 4.28
 11 12 -33 35.38 5.04
 -12 -11 33 33.85 4.61
 11 -12 33 33.74 4.18
 12 11 -33 40.09 5.15
 12 -11 33 32.08 4.06
 0 -13 33 364.13 16.37
 -13 0 -33 412.68 15.54
 13 0 -33 398.77 16.12
 13 -2 -33 433.65 17.1
 2 -13 33 414.28 17.25
 13 2 -33 423.97 17.07
 -13 -2 -33 417.48 16.49
 13 -4 -33 213.72 10.11
 -13 4 -33 206.08 9.04
 -13 -4 -33 209.39 9.12
 13 4 -33 222.02 10.05
 -4 -13 33 194.4 10.39
 6 -13 33 137.09 8.1
 6 13 -33 126.99 8.37
 -13 -6 33 125.27 8.03
 13 -6 -33 131.38 8.43
 -13 6 -33 127.01 6.63
 13 6 -33 147.56 8.05
 -6 -13 33 140.16 8.33
 8 13 -33 35.57 5.01
 -13 -8 33 45.23 4.95
 8 -13 33 44.91 4.59
 -8 -13 33 29.77 4.72
 13 8 -33 39.82 4.74
 -13 -10 33 8.57 4.6
 10 -13 33 7.76 4.01
 13 10 -33 5.41 4.81
 -10 -13 33 10.5 4.21
 12 -13 33 17.41 3.95
 12 13 -33 21.49 5.19
 -13 -12 33 16.4 4.37
 13 12 -33 15.49 5.03
 -12 -13 33 13.62 4.12
 13 -12 33 15.49 3.68
 1 -14 33 -0.05 4.89
 -14 1 -33 -1.41 2.79
 14 -1 -33 -4.81 4.06
 -1 -14 33 -1.08 5.1
 14 1 -33 -7.58 4.1
 -14 -1 -33 0.84 2.91
 -14 3 -33 31.57 3.23
 3 -14 33 41.34 5.03
 14 -3 -33 20.82 4.23
 14 3 -33 23.86 4.3
 -14 -3 -33 31.59 3.32
 -3 -14 33 38.05 5.11
 -14 -5 33 15.14 4.45
 14 -5 -33 31.11 4.66
 5 -14 33 22.11 4.78
 -5 -14 33 17.25 4.55
 14 5 -33 27.49 4.43
 14 -7 -33 38.74 4.65
 -14 -7 33 34.36 4.37
 -7 -14 33 41.08 4.78
 14 7 -33 51.77 4.77
 -14 -9 33 27.65 4.4
 14 -9 -33 31.12 4.36
 -9 -14 33 34.88 4.64
 11 -14 33 68.66 5.08
 14 11 -33 72.33 5.73
 14 -11 33 73.38 5.5
 -14 -13 33 36.13 4.89
 13 -14 33 44.46 4.21
 14 -13 33 34.56 3.97
 14 13 -33 37.07 5.43
 -13 -14 33 34.19 4.76
 0 -15 33 0.06 4.83
 15 0 -33 8.46 4.18
 2 -15 33 -2.43 4.91
 15 -2 -33 2.36 4.29
 -15 -2 -33 2.54 3.03
 -2 -15 33 4.94 4.66
 15 2 -33 7.03 4.01
 15 -4 -33 7.31 4.24
 4 -15 33 7.09 4.74
 15 4 -33 8.16 4.09
 -15 -4 -33 5.49 2.96
 -4 -15 33 7.8 5.04
 6 -15 33 -3.71 4.72
 15 -6 -33 0.86 4.36
 -15 -6 33 -0.38 4.35
 15 6 -33 1.78 4.19
 -6 -15 33 5.63 4.51
 15 -8 -33 4.94 4.34
 8 -15 33 -4.34 4.49
 -15 -8 33 -2.7 4.64
 15 8 -33 4.21 4.46
 -8 -15 33 8.77 4.32
 -15 -10 33 10.57 4.28
 10 -15 33 18.56 4.31
 15 -10 -33 10.25 4.46
 -10 -15 33 8.95 4.3
 15 10 -33 13.64 4.89
 -15 -12 33 18.56 4.98
 12 -15 33 25.28 4.22
 -12 -15 33 11.58 4.36
 15 -12 33 23.08 3.62
 15 12 -33 21.31 4.91
 -15 -14 33 11.73 4.73
 14 -15 33 15.49 3.83
 15 -14 33 21.75 3.6
 -14 -15 33 22.13 4.85
 1 -16 33 -2.58 4.88
 16 -1 -33 1.1 4.2
 -1 -16 33 -0.61 5
 16 1 -33 3.8 4.34
 3 -16 33 29.04 5.14
 16 -3 -33 22 4.25
 -16 -3 -33 23.21 3.07
 16 3 -33 29.69 4.52
 -3 -16 33 21.79 5.11
 5 -16 33 15.81 4.97
 16 -5 -33 6.11 4.51
 -5 -16 33 17.14 5.14
 -16 -5 -33 14.02 2.94
 16 5 -33 16.96 4.32
 -16 -7 33 23.57 4.48
 16 -7 -33 17.81 4.61
 7 -16 33 17.95 4.76
 -7 -16 33 10.39 4.55
 16 7 -33 14.69 4.42
 -16 -9 33 22.62 4.77
 16 -9 -33 15.28 4.86
 9 -16 33 22.54 4.73
 16 9 -33 17 4.94
 -9 -16 33 18.89 4.39
 -16 -11 33 21.34 4.33
 16 -11 -33 23.42 4.32
 -11 -16 33 21.69 4.92
 13 -16 33 19.04 4.18
 -16 -13 33 17.6 4.65
 16 13 -33 18.42 5.51
 -13 -16 33 14 5.07
 -16 -15 33 1.83 4.16
 15 -16 33 9.99 3.68
 -15 -16 33 5.67 4.13
 17 0 -33 -1.12 4.07
 0 -17 33 -5.58 4.74
 2 -17 33 -7.28 4.93
 17 -2 -33 4.32 4.6
 17 2 -33 0.28 4.13
 -2 -17 33 4.65 4.83
 17 -4 -33 -3.08 4.08
 4 -17 33 2.06 4.83
 -17 -4 -33 -0.74 2.96
 -4 -17 33 3.35 4.94
 17 4 -33 4.59 4.63
 -17 -6 33 -0.83 4.12
 6 -17 33 3.97 4.81
 17 -6 -33 -0.61 4.28
 17 6 -33 -0.25 4.27
 -6 -17 33 4.51 5.28
 8 -17 33 0.93 4.72
 17 -8 -33 2.58 4.48
 -17 -8 33 9.39 4.08
 -8 -17 33 6.92 5.14
 17 8 -33 -1.94 4.29
 17 -10 -33 2.66 4.21
 -17 -10 33 1.65 4.81
 10 -17 33 -1.97 4.55
 17 10 -33 3.51 4.82
 -10 -17 33 7.72 5.16
 -17 -12 33 -1.36 4.3
 12 -17 33 2.84 4.33
 17 -12 -33 3.07 4.56
 17 12 -33 2.26 5.22
 -12 -17 33 7.02 4.74
 -17 -14 33 3.78 4.39
 14 -17 33 -3.21 3.97
 -14 -17 33 9.9 4.18
 -17 -16 33 -3.16 4.74
 -16 -17 33 -4.31 4.68
 18 -1 -33 5.46 4.25
 1 -18 33 -8.93 5.1
 -1 -18 33 -1.2 4.99
 18 1 -33 0.61 4.35
 3 -18 33 -1 5.11
 18 3 -33 -0.81 4.13
 -3 -18 33 4.43 5.11
 5 -18 33 7.84 4.92
 18 -5 -33 3.13 4.23
 18 5 -33 1.04 4.38
 -5 -18 33 -6.08 4.49
 7 -18 33 6.62 4.85
 18 -7 -33 4.87 4.27
 -18 -7 33 15.46 4.76
 18 7 -33 12.47 4.5
 -7 -18 33 2.9 4.83
 -18 -9 33 11.02 4.33
 9 -18 33 9.61 4.67
 18 -9 -33 10.73 4.39
 -9 -18 33 11.84 4.67
 18 9 -33 16.96 4.72
 18 -11 -33 9.11 4.67
 -18 -11 33 6.41 5.13
 11 -18 33 18.78 4.67
 -11 -18 33 12.49 4.42
 18 11 -33 18.09 4.91
 -18 -13 33 11.77 5.08
 13 -18 33 8.42 4.4
 18 -13 -33 2.78 4.37
 -13 -18 33 -0.08 4.75
 15 -18 33 -0.55 3.87
 -18 -15 33 2.54 4.76
 -15 -18 33 3.16 4.55
 -18 -17 33 17.37 4.76
 -17 -18 33 -4.84 4.82
 19 0 -33 74.97 5.29
 0 -19 33 77.19 6.28
 19 -2 -33 71.79 5.57
 2 -19 33 88.88 6.4
 19 2 -33 86.55 7.19
 19 -4 -33 73.44 5.58
 4 -19 33 68 5.96
 -4 -19 33 63.86 6.24
 19 4 -33 61.49 5.27
 19 -6 -33 27.4 4.6
 6 -19 33 20.02 5.21
 -6 -19 33 29.7 5.26
 19 6 -33 27.29 4.69
 -19 -8 33 16.07 4.99
 19 -8 -33 10.23 4.56
 8 -19 33 11.56 4.8
 19 8 -33 11.97 4.61
 -8 -19 33 10.55 4.9
 19 -10 -33 7.1 4.47
 10 -19 33 9.92 4.78
 -19 -10 33 10.35 4.31
 19 10 -33 10.53 5.24
 12 -19 33 4.91 4.52
 -19 -12 33 2.3 4.66
 19 -12 -33 6.22 4.56
 19 12 -33 -2.36 5.22
 -12 -19 33 6.18 4.95
 -19 -14 33 1.03 4.43
 19 -14 -33 -7.75 4.34
 -14 -19 33 9.39 4.27
 -19 -16 33 7.67 4.79
 -16 -19 33 3.24 4.83
 -19 -18 33 9.95 4.21
 -18 -19 33 0.97 4.45
 20 -1 -33 0.45 4.19
 1 -20 33 -2.76 5.38
 20 1 -33 9.3 4.49
 -1 -20 33 5.51 5.19
 3 -20 33 24.84 5.48
 20 -3 -33 25.34 4.61
 20 3 -33 17.98 4.4
 -3 -20 33 25.26 5.38
 5 -20 33 32.28 5.34
 20 -5 -33 21.16 4.61
 -5 -20 33 20.5 4.93
 20 5 -33 25.78 4.75
 -20 -7 33 21.95 4.43
 20 -7 -33 33.7 4.69
 7 -20 33 34.65 5.18
 20 7 -33 28.4 4.66
 -7 -20 33 28.52 5.09
 -20 -9 33 23.51 5.15
 9 -20 33 27.78 5.11
 20 -9 -33 23.5 4.54
 20 9 -33 30.56 4.83
 -9 -20 33 24.36 4.81
 11 -20 33 28.33 4.84
 -20 -11 33 18.66 4.55
 20 -11 -33 28.76 4.78
 20 11 -33 34.59 5.2
 20 -13 -33 9.25 4.51
 13 -20 33 14.71 4.57
 -20 -13 33 14.22 4.47
 -13 -20 33 16.91 5.24
 -20 -15 33 0.11 5.12
 20 -15 -33 -0.52 4.44
 -17 -20 33 13.93 5.01
 0 -21 33 25.64 5.62
 21 0 -33 22.18 4.62
 21 -2 -33 12.96 4.33
 -2 -21 33 9.25 5.09
 21 2 -33 16.64 4.44
 4 -21 33 24.71 5.51
 21 -4 -33 5.82 4.27
 21 4 -33 11.97 4.46
 -4 -21 33 17.98 5.35
 21 -6 -33 13.07 4.41
 6 -21 33 17.35 5.19
 21 6 -33 21.88 4.76
 -6 -21 33 11.01 5.38
 21 -8 -33 3.19 4.24
 -21 -8 33 3.43 4.22
 8 -21 33 14.26 5.05
 -8 -21 33 -2.78 5.33
 21 -10 -33 3.1 4.58
 10 -21 33 9.34 4.79
 -21 -10 33 13.78 4.82
 21 10 -33 16.54 4.86
 -10 -21 33 11.54 5.18
 21 -12 -33 0.46 4.4
 12 -21 33 -5.96 4.52
 -21 -12 33 0.95 5.02
 -12 -21 33 0.89 4.47
 21 -14 -33 2.49 4.46
 -21 -14 33 -2.58 4.84
 14 -21 33 -5.62 4.38
 -14 -21 33 8.05 4.77
 -21 -16 33 -0.52 4.41
 21 -16 -33 6.41 4.62
 -16 -21 33 6.52 4.53
 1 -22 33 -2.06 5.41
 22 -1 -33 11.67 4.55
 -1 -22 33 1.43 5.18
 22 1 -33 3.38 4.46
 22 -3 -33 15.36 4.52
 3 -22 33 9.96 5.46
 -3 -22 33 4.27 5.45
 22 3 -33 -0.41 4.39
 22 -5 -33 14.02 4.45
 5 -22 33 15.65 5.3
 -5 -22 33 10.05 5.45
 22 5 -33 11.25 4.56
 22 -7 -33 21.83 4.56
 7 -22 33 19.31 5.2
 22 7 -33 19.74 4.88
 -7 -22 33 12.44 5.01
 -22 -9 33 19.16 4.7
 22 -9 -33 27.94 4.57
 9 -22 33 19.32 5.13
 22 9 -33 32.18 5.24
 -9 -22 33 18.03 5.03
 22 -11 -33 18.03 4.6
 11 -22 33 15.89 4.97
 22 11 -33 22.32 5.44
 -11 -22 33 23.5 5.37
 22 -13 -33 13.59 4.46
 13 -22 33 5.91 4.53
 -22 -13 33 12.3 4.44
 -13 -22 33 8.35 4.72
 0 -23 33 53.28 5.96
 23 0 -33 63.81 5.17
 23 -2 -33 65.91 5.2
 2 -23 33 44.1 5.79
 23 2 -33 51.43 5.03
 -2 -23 33 55.36 6.22
 4 -23 33 35.59 5.52
 -4 -23 33 33.96 5.57
 23 4 -33 29.34 4.7
 23 -6 -33 12.22 4.57
 6 -23 33 14.12 5.23
 -6 -23 33 13.91 4.89
 23 -8 -33 11.59 4.4
 8 -23 33 11.31 5
 23 8 -33 15.81 4.89
 -8 -23 33 5.68 4.64
 10 -23 33 4.32 4.98
 23 -10 -33 -0.74 4.6
 -23 -10 33 -4.05 5.04
 23 10 -33 7.12 4.98
 -10 -23 33 0.67 4.55
 12 -23 33 4.18 4.73
 -23 -12 33 4.29 5.15
 23 -12 -33 -1.48 4.32
 -12 -23 33 -5.03 5.11
 1 -24 33 -10.61 5.68
 24 -1 -33 -4.69 4.4
 24 1 -33 7.44 4.43
 -1 -24 33 0.07 5.49
 3 -24 33 6.65 5.46
 24 -3 -33 4.99 4.39
 -3 -24 33 11.3 5.56
 24 3 -33 6.68 4.48
 5 -24 33 5.79 5.44
 24 -5 -33 12.26 4.61
 -5 -24 33 13.08 4.99
 24 5 -33 9.41 4.56
 24 -7 -33 11.35 4.54
 7 -24 33 11.89 5.19
 -7 -24 33 3.33 4.78
 24 7 -33 17.44 4.73
 24 -9 -33 14.68 4.58
 9 -24 33 13.95 5.05
 24 9 -33 19.94 4.83
 24 -11 -33 11.39 4.57
 -24 -11 33 7.6 4.61
 11 -24 33 15.94 4.89
 0 -25 33 -1.53 5.29
 25 0 -33 1.52 4.44
 25 -2 -33 5.28 4.42
 25 2 -33 11.69 4.56
 -2 -25 33 8.54 5.87
 25 -4 -33 8.04 4.54
 4 -25 33 3.24 5.44
 -4 -25 33 1.91 5.06
 25 4 -33 5.89 4.43
 25 -6 -33 9.61 4.69
 6 -25 33 1.28 5.29
 25 6 -33 5.94 4.62
 -6 -25 33 4.08 4.9
 25 -8 -33 2.87 4.46
 8 -25 33 -2.31 5.09
 -8 -25 33 1.46 4.69
 1 -26 33 -5.66 5.72
 26 -1 -33 -4.31 4.62
 26 1 -33 3.8 4.67
 -1 -26 33 -11.04 5.56
 26 -3 -33 3.33 4.5
 26 3 -33 0.99 4.54
 -3 -26 33 9.34 5.62
 26 -5 -33 -5.18 4.46
 5 -26 33 4.46 5.43
 -5 -26 33 -1.85 4.94
 26 5 -33 -2.42 4.53
 0 0 -34 0.19 3.61
 1 1 -34 -2.13 3.57
 -1 1 -34 -2.91 3.42
 1 -1 -34 1.49 3.74
 0 2 -34 22.31 3.74
 0 -2 -34 22.96 3.96
 2 0 -34 27.69 3.89
 2 -2 -34 -0.28 3.88
 -2 -2 -34 -4.04 5.45
 2 2 -34 -1.68 3.68
 -1 -3 -34 -2.97 3.76
 3 -1 -34 -0.75 3.65
 1 3 -34 2.34 3.87
 -1 3 -34 4.07 3.49
 3 1 -34 2.53 3.76
 1 -3 -34 -4.12 3.79
 3 3 -34 -4.5 3.96
 3 -3 -34 -3.77 3.97
 0 -4 -34 6.35 3.74
 0 4 -34 8.56 3.51
 2 4 -34 0.48 3.75
 -2 -4 -34 3.94 3.29
 4 -2 -34 12.08 4.22
 2 -4 -34 6.22 3.89
 4 2 -34 6.53 4.01
 4 -4 -34 -7.69 3.84
 4 4 -34 -2.08 3.58
 5 -1 -34 3.33 3.75
 1 5 -34 1.1 3.54
 5 1 -34 1.43 3.57
 -1 -5 34 -5.9 4.1
 1 -5 -34 3.12 4.19
 5 -3 -34 2.56 4.33
 3 5 -34 4.61 3.63
 3 -5 -34 0.4 3.93
 5 3 -34 -2.78 3.51
 5 5 -34 4 3.59
 5 -5 -34 4.02 3.94
 -5 -5 34 2.75 3.89
 6 0 -34 1.51 4.02
 0 -6 34 0.58 4.29
 -6 0 -34 -5.81 3.06
 2 -6 34 -1.17 4.12
 6 -2 -34 4.5 3.78
 2 6 -34 -0.33 3.53
 -2 -6 34 -7.04 4.06
 6 2 -34 0.54 3.93
 6 -4 -34 1.87 4.29
 4 6 -34 4.34 3.79
 4 -6 34 -5.75 4.01
 -4 -6 34 -8.5 4.34
 6 4 -34 -0.17 3.67
 6 6 -34 -2.37 3.82
 -6 -6 34 -0.17 4.32
 6 -6 -34 7.89 4.18
 1 7 -34 6.33 4.07
 1 -7 34 5.23 4.02
 7 -1 -34 4.73 4.03
 -1 -7 34 6.8 4.45
 -7 -1 -34 1.59 2.96
 7 1 -34 4.87 3.56
 7 -3 -34 6.42 3.84
 3 -7 34 6.81 4.24
 3 7 -34 3.99 3.93
 -7 -3 -34 8.92 2.99
 7 3 -34 4.42 3.83
 -3 -7 34 -0.65 3.93
 -7 -5 34 -5.35 3.76
 7 -5 -34 0.98 4
 5 7 -34 -8.23 4.04
 5 -7 34 -2.03 3.85
 7 5 -34 -1.05 4.18
 -5 -7 34 -1.45 3.85
 -7 -7 34 2.47 4.01
 7 -7 -34 4.4 4.02
 7 7 -34 9.08 3.98
 8 0 -34 -3.59 3.8
 -8 0 -34 -5.88 3.3
 0 -8 34 2.81 4.23
 -8 2 -34 -4.98 3.2
 2 8 -34 -1.23 4.1
 2 -8 34 2.13 3.99
 8 -2 -34 12.26 4.22
 -2 -8 34 4.23 4.33
 8 2 -34 2.05 3.91
 -8 -2 -34 3.79 3.28
 4 8 -34 1.94 3.98
 4 -8 34 8.3 4.02
 8 -4 -34 6.81 4.19
 -8 -4 -34 7.68 3.19
 -4 -8 34 -0.62 4.42
 8 4 -34 3.42 3.54
 6 -8 34 -0.58 3.98
 -8 -6 34 -1.92 4.23
 8 -6 -34 6.36 4.52
 6 8 -34 -0.25 4.04
 8 6 -34 7.15 4.47
 -6 -8 34 2.34 4.37
 8 -8 34 4.56 3.82
 8 8 -34 8.87 3.95
 -8 -8 34 9.81 4.13
 1 9 -34 5.41 4.31
 -9 1 -34 1.53 3.38
 1 -9 34 1.85 4.17
 9 -1 -34 1.15 4.13
 -1 -9 34 0.88 4.65
 9 1 -34 11.8 3.89
 9 -3 -34 3.95 4.6
 3 9 -34 4.43 4.05
 3 -9 34 -2.58 4.19
 -9 3 -34 -1 3.32
 9 3 -34 3.68 3.93
 -9 -3 -34 1.2 3.2
 -3 -9 34 -8.91 4.49
 9 -5 -34 -0.92 4.44
 5 -9 34 -0.85 4.05
 5 9 -34 5.45 4.51
 -9 -5 34 -2.24 4.21
 9 5 -34 0.16 3.64
 -5 -9 34 8.68 4.63
 -9 -7 34 1.39 4.36
 9 -7 -34 5.34 3.95
 7 -9 34 -2.79 3.87
 7 9 -34 -6 4.42
 -7 -9 34 -2.31 4.26
 9 7 -34 -3.34 4.42
 -9 -9 34 4.86 4.5
 9 9 -34 9.01 4.38
 9 -9 34 1.29 3.81
 10 0 -34 7.45 4.04
 0 -10 34 6.29 4.63
 10 -2 -34 -3.67 3.83
 2 10 -34 0.83 3.94
 -10 2 -34 -0.7 3.17
 2 -10 34 -2.19 4.15
 -10 -2 -34 -0.35 3.11
 -2 -10 34 3.84 4.27
 10 2 -34 2.67 4.44
 10 -4 -34 4.94 3.94
 4 10 -34 5.84 4.43
 4 -10 34 -3.22 4.15
 -10 4 -34 5.42 3.32
 -4 -10 34 -1.88 4.31
 -10 -4 -34 -1.09 3.2
 10 4 -34 3.51 3.82
 6 -10 34 -3.56 4.16
 6 10 -34 -4.38 4.17
 10 -6 -34 -3.58 4.37
 -10 -6 34 0.51 3.89
 -6 -10 34 8.77 4.54
 10 6 -34 4.5 3.96
 10 -8 -34 -3.84 3.93
 -10 -8 34 -4.05 4.06
 8 -10 34 2.81 3.93
 8 10 -34 2.66 4.25
 -8 -10 34 3.57 4.19
 10 8 -34 -4.85 4.29
 10 10 -34 -5.01 4.64
 10 -10 34 -6.38 3.76
 -10 -10 34 6.01 4.19
 1 -11 34 8.89 4.56
 11 -1 -34 -2.54 4.08
 1 11 -34 6.67 4.48
 11 1 -34 3.18 4.27
 -11 -1 -34 6.84 3.15
 3 -11 34 8.76 4.31
 3 11 -34 2.17 4.56
 -11 -3 -34 6.91 3.1
 11 3 -34 8.8 3.92
 -3 -11 34 3.72 4.22
 5 11 -34 2.35 4.03
 -11 5 -34 7.11 3.25
 5 -11 34 10.7 4.13
 11 -5 -34 5.21 4.55
 -5 -11 34 -4.95 4.68
 7 -11 34 11.02 4.13
 11 -7 -34 2.74 4.16
 -11 -7 34 2.11 4.45
 7 11 -34 11.44 4.33
 11 7 -34 10.09 4.26
 -7 -11 34 -5.97 4.08
 9 11 -34 6.68 4.26
 9 -11 34 11.08 4
 -11 -9 34 2.26 4.31
 11 9 -34 2.68 4.43
 -9 -11 34 -0.03 4.5
 -11 -11 34 6.93 4.45
 11 11 -34 5.69 4.66
 0 -12 34 11.27 4.52
 12 0 -34 21.7 4.36
 -12 0 -34 14.31 3.31
 12 -2 -34 6.38 4.19
 2 -12 34 9.83 4.67
 -12 2 -34 2.69 3.01
 2 12 -34 4.7 4.61
 12 2 -34 10.3 4.06
 -12 -2 -34 4.41 3.04
 -2 -12 34 13.41 4.35
 -12 4 -34 4.94 3.16
 4 -12 34 7.1 4.42
 12 -4 -34 -1.6 4.07
 4 12 -34 9.45 4.3
 -12 -4 -34 3.37 3.07
 12 4 -34 6.36 3.84
 -4 -12 34 6.1 4.72
 -12 -6 34 -2.87 3.91
 12 -6 -34 -1.05 4.44
 -12 6 -34 -5 3.06
 6 -12 34 2.15 4.35
 6 12 -34 0.99 4.76
 12 6 -34 0.32 4.13
 -6 -12 34 4.26 4.27
 12 -8 -34 3.92 4.12
 8 12 -34 9.69 4.57
 8 -12 34 10.1 4.18
 12 8 -34 3.59 4.24
 -8 -12 34 7.6 4.72
 10 -12 34 -3.17 3.89
 -12 -10 34 -3.53 3.99
 10 12 -34 7.46 4.98
 12 -10 34 -8.32 3.63
 12 10 -34 -0.95 4.22
 -10 -12 34 6.18 4.62
 12 12 -34 12.72 5.03
 12 -12 34 4.66 3.69
 -12 -12 34 0.84 4.66
 -13 1 -34 3.04 2.91
 1 -13 34 0.34 4.84
 13 1 -34 3.08 3.94
 -1 -13 34 5.79 4.74
 -13 -1 -34 2.63 3
 -13 3 -34 -4.67 3.09
 13 -3 -34 3.6 4.17
 3 13 -34 5.53 4.44
 3 -13 34 3.06 4.58
 -13 -3 -34 0.29 3.04
 -3 -13 34 -0.44 4.74
 13 3 -34 2.96 3.83
 -13 5 -34 -2.3 2.9
 -13 -5 34 1.67 4.53
 13 -5 -34 1.14 4.42
 5 13 -34 5.72 4.7
 5 -13 34 -1.2 4.45
 13 5 -34 1.11 4.01
 -5 -13 34 -4.62 4.27
 13 -7 -34 0.95 4.55
 7 13 -34 10.92 4.76
 -13 -7 34 6.02 4.11
 -7 -13 34 6.71 4.76
 13 7 -34 8.69 4.12
 -13 -9 34 -9.12 4.31
 13 -9 -34 -4.51 4.4
 9 -13 34 4.93 4.1
 9 13 -34 0.08 5.1
 13 9 -34 8.57 4.26
 -9 -13 34 -4.51 4.57
 -13 -11 34 0.49 4.48
 11 13 -34 -2.77 4.83
 11 -13 34 -3.75 3.99
 -11 -13 34 2.6 4.58
 13 11 -34 0.88 5
 13 -11 34 2.58 3.66
 -13 -13 34 2.09 4.65
 13 -13 34 -7.25 3.7
 13 13 -34 -0.02 5.03
 -14 0 -34 1.46 2.98
 14 0 -34 6.96 4.51
 0 -14 34 -2.59 4.88
 2 -14 34 2.84 4.65
 14 -2 -34 -1.66 4.29
 -14 2 -34 -0.36 2.85
 -14 -2 -34 -1.41 3.08
 -2 -14 34 -4.25 4.76
 14 2 -34 -0.16 4.17
 4 -14 34 6.16 4.7
 -14 4 -34 2.18 2.95
 14 -4 -34 -4.48 3.88
 -14 -4 -34 -2.87 2.97
 14 4 -34 -4.82 4.13
 -4 -14 34 -0.66 4.36
 -14 -6 34 1.98 4.12
 6 -14 34 -1.11 4.48
 14 -6 -34 4.66 4.48
 -6 -14 34 3.3 4.79
 14 6 -34 8.11 4.22
 8 -14 34 4.39 4.31
 14 -8 -34 2.08 4.74
 -14 -8 34 1.55 4.37
 -8 -14 34 -5.18 4.81
 14 8 -34 6.69 4.19
 14 -10 -34 -0.69 4.31
 -14 -10 34 -0.2 4.13
 10 -14 34 8.62 4.07
 14 10 -34 4.49 4.83
 -10 -14 34 -0.29 4.81
 -14 -12 34 2.69 4.4
 12 -14 34 6.93 3.95
 -12 -14 34 0.86 4.78
 14 12 -34 6.3 4.89
 14 -12 34 -0.12 3.6
 14 -14 34 -3.77 3.58
 -14 -14 34 -0.2 4.3
 -15 1 -34 7.18 2.81
 15 -1 -34 3.59 4.05
 1 -15 34 -5.08 4.71
 15 1 -34 7.47 4.28
 -15 -1 -34 4.54 3.06
 -1 -15 34 -3.21 4.62
 3 -15 34 3.55 4.87
 15 -3 -34 6.04 4.3
 -3 -15 34 4.06 5.02
 -15 -3 -34 4.64 2.95
 15 3 -34 4.02 4.42
 5 -15 34 -2.37 4.8
 15 -5 -34 -1.68 4.13
 15 5 -34 -4.84 4.4
 -15 -5 -34 5.13 2.95
 -5 -15 34 1.98 4.65
 -15 -7 34 -5.47 4.34
 15 -7 -34 6.14 4.42
 7 -15 34 0.88 4.59
 15 7 -34 3.19 4.25
 15 -9 -34 -6.82 4.47
 9 -15 34 8.28 4.36
 -15 -9 34 0.79 4.74
 -9 -15 34 2.07 4.86
 15 -11 -34 -3.49 4.14
 -15 -11 34 4.83 4.04
 11 -15 34 4.27 4.08
 15 11 -34 9.74 4.95
 -11 -15 34 3.6 4.99
 -15 -13 34 -3.54 4.12
 13 -15 34 -0.22 3.94
 -13 -15 34 -1.94 4.44
 15 13 -34 10.53 5.28
 15 -13 34 1.12 3.6
 -15 -15 34 3.61 4.23
 15 -15 34 3.48 3.7
 0 -16 34 6.95 5.21
 16 0 -34 4.47 4.2
 2 -16 34 4.44 5.12
 16 -2 -34 3.6 4.28
 -2 -16 34 3.89 4.98
 16 2 -34 3.78 3.88
 4 -16 34 4.28 4.86
 16 -4 -34 -2.57 4.12
 -4 -16 34 -0.52 4.65
 -16 -4 -34 5.56 2.94
 16 4 -34 -3.7 4.23
 16 -6 -34 2.79 4.18
 6 -16 34 6.3 4.75
 -16 -6 34 -3.53 3.93
 -6 -16 34 5.57 4.76
 16 6 -34 -1.11 4.67
 -16 -8 34 -2.48 3.98
 16 -8 -34 0.11 4.36
 8 -16 34 -1.72 4.59
 16 8 -34 3.06 4.24
 -8 -16 34 6.86 4.82
 10 -16 34 -2.92 4.32
 16 -10 -34 -2.22 4.25
 -16 -10 34 -5.88 4.68
 -10 -16 34 6.65 4.63
 16 10 -34 8.24 4.88
 -16 -12 34 -1.95 4.16
 16 -12 -34 -0.14 4.22
 12 -16 34 -0.46 4.07
 16 12 -34 4.05 4.88
 -12 -16 34 -2.51 4.17
 14 -16 34 5.28 3.83
 -14 -16 34 6.09 4.31
 -16 -16 34 5.9 4.62
 17 -1 -34 2.16 4.11
 1 -17 34 1.86 4.88
 -1 -17 34 -3.81 5.04
 17 1 -34 -2.61 4.31
 3 -17 34 3.22 4.99
 17 -3 -34 -6.72 4.5
 -3 -17 34 -1.57 5.21
 17 3 -34 3.87 4.25
 5 -17 34 -1.26 4.83
 17 -5 -34 -0.78 4.19
 -5 -17 34 1.8 4.76
 17 5 -34 2.96 4.34
 -17 -5 -34 -1.49 2.96
 17 -7 -34 3.62 4.25
 7 -17 34 -0.61 4.85
 -7 -17 34 1.04 4.48
 17 7 -34 9.56 4.58
 9 -17 34 8.62 4.62
 17 -9 -34 -10.19 4.33
 -17 -9 34 -2.99 4.22
 -9 -17 34 -2.84 4.33
 17 9 -34 6.24 4.51
 -17 -11 34 0.37 4.91
 11 -17 34 -6.7 4.26
 17 -11 -34 -1.23 4.48
 -11 -17 34 0.3 4.19
 -17 -13 34 -10.15 4.87
 13 -17 34 -8.22 4.1
 17 -13 -34 1.38 4.55
 17 13 -34 -2.89 5.56
 -13 -17 34 6.75 4.88
 -17 -15 34 0.49 4.61
 15 -17 34 -0.37 3.81
 -15 -17 34 -4.63 4.46
 -17 -17 34 1.21 4.68
 0 -18 34 5.51 4.88
 18 0 -34 0.78 4.09
 18 -2 -34 1.73 4.25
 2 -18 34 -5.31 4.9
 -2 -18 34 -2.21 5.05
 18 2 -34 5.47 4.16
 4 -18 34 -0.59 4.91
 18 -4 -34 -3.88 4.55
 -18 -4 -34 -3.48 2.85
 18 4 -34 5.08 4.4
 -4 -18 34 8.36 5.03
 6 -18 34 -4.34 4.86
 18 -6 -34 3.01 4.36
 -6 -18 34 4.13 5.28
 18 6 -34 7.42 4.35
 8 -18 34 2.87 4.83
 -18 -8 34 10.61 4.7
 18 -8 -34 1.67 4.6
 18 8 -34 11.09 4.63
 -8 -18 34 -3.83 4.92
 -18 -10 34 0.01 4.32
 10 -18 34 4.87 4.64
 18 -10 -34 10 4.54
 18 10 -34 8.93 4.97
 -10 -18 34 1.28 5.06
 18 -12 -34 -4.87 4.61
 12 -18 34 3.18 4.37
 -18 -12 34 2.78 4.66
 18 12 -34 -4.25 5.02
 -12 -18 34 3.45 4.89
 18 -14 -34 4.27 4.56
 -18 -14 34 -0.22 4.47
 -14 -18 34 4.86 4.14
 -18 -16 34 12.79 4.67
 -16 -18 34 6.6 4.99
 -18 -18 34 8.51 4.19
 19 -1 -34 1.81 4.2
 1 -19 34 -1.9 5.11
 19 1 -34 5.21 4.46
 -1 -19 34 5.8 4.93
 3 -19 34 9.84 5.05
 19 -3 -34 3.04 4.31
 19 3 -34 -0.4 4.13
 -3 -19 34 -3.71 5.31
 5 -19 34 5.7 4.97
 19 -5 -34 5.72 4.39
 -5 -19 34 0.6 4.65
 19 5 -34 2.71 4.68
 7 -19 34 11.34 4.92
 19 -7 -34 11.12 4.49
 -19 -7 34 1.68 4.17
 19 7 -34 5.03 4.54
 -7 -19 34 3.31 4.8
 9 -19 34 -5.76 4.72
 19 -9 -34 5.17 4.35
 -19 -9 34 2.43 4.77
 19 9 -34 0.17 4.56
 -9 -19 34 6.86 4.68
 -19 -11 34 4.01 4.18
 19 -11 -34 0.13 4.82
 11 -19 34 1.3 4.55
 -11 -19 34 4.21 4.35
 19 11 -34 -3.06 5.01
 -19 -13 34 -4 4.19
 13 -19 34 1.77 4.42
 19 -13 -34 -7.35 4.45
 -13 -19 34 5.29 4.68
 19 -15 -34 -3.61 4.5
 -19 -15 34 7.57 4.84
 15 -19 34 4.75 4.37
 -15 -19 34 2.02 4.69
 -19 -17 34 8.18 4.09
 -17 -19 34 0.13 4.45
 20 0 -34 8.1 4.26
 0 -20 34 2.76 5.23
 20 -2 -34 10.52 4.24
 2 -20 34 7.42 5.17
 20 2 -34 4 4.28
 -2 -20 34 3.62 4.9
 20 -4 -34 -3.43 4.26
 4 -20 34 -4.71 5.02
 -4 -20 34 4.67 5.15
 20 4 -34 7.02 4.42
 6 -20 34 -10.3 4.95
 20 -6 -34 -5.04 4.2
 -6 -20 34 2.73 5.49
 20 6 -34 -3.51 4.62
 20 -8 -34 0.97 4.22
 8 -20 34 -3.02 4.95
 -20 -8 34 -5.63 4.2
 20 8 -34 4.73 4.53
 -8 -20 34 3.69 5.26
 20 -10 -34 12.87 4.71
 10 -20 34 -1.75 4.74
 -20 -10 34 0.97 5.04
 -10 -20 34 5.06 5.24
 20 10 -34 6.41 4.77
 12 -20 34 5.11 4.6
 -20 -12 34 7.42 4.8
 20 12 -34 3.11 4.95
 -12 -20 34 8.1 4.83
 20 -14 -34 -4.65 4.4
 -20 -14 34 14.36 5.08
 -14 -20 34 3.02 4.24
 20 -16 -34 -5.39 4.58
 -20 -16 34 0.19 4.15
 -16 -20 34 -4.47 4.78
 21 -1 -34 5.54 4.34
 1 -21 34 -6.4 5.17
 -1 -21 34 0.46 5.08
 21 1 -34 5.89 4.55
 21 -3 -34 -9.37 4.38
 3 -21 34 4.12 5.29
 -3 -21 34 -2.89 5.4
 21 3 -34 -2.96 4.39
 5 -21 34 10.27 5.14
 21 -5 -34 -4.15 4.36
 21 5 -34 2.87 4.36
 -5 -21 34 -5.89 4.93
 7 -21 34 2.04 4.98
 21 -7 -34 -0.52 4.4
 21 7 -34 -5.2 4.62
 -7 -21 34 6.6 4.7
 9 -21 34 -5.4 4.71
 21 -9 -34 -5.46 4.46
 -21 -9 34 -2.23 4.21
 -9 -21 34 1.72 4.51
 21 9 -34 4.66 5.07
 -21 -11 34 -7.63 4.64
 11 -21 34 8.42 4.64
 21 -11 -34 -5.13 4.35
 -11 -21 34 -2.28 4.61
 21 11 -34 4.06 5.26
 13 -21 34 -2.58 4.58
 21 -13 -34 10.41 4.54
 -21 -13 34 -2.74 4.66
 -13 -21 34 -0.26 4.98
 -21 -15 34 -0.44 4.37
 21 -15 -34 2.18 4.53
 -15 -21 34 1.75 4.14
 22 0 -34 3.27 4.47
 0 -22 34 -0.18 5.12
 2 -22 34 5.25 5.18
 22 -2 -34 2.75 4.48
 -2 -22 34 9.59 5.67
 22 2 -34 -0.87 4.42
 22 -4 -34 10.64 4.54
 4 -22 34 3.33 5.21
 -4 -22 34 5.71 4.95
 22 4 -34 1.62 4.42
 22 -6 -34 -0.2 4.51
 6 -22 34 -5.87 5.13
 -6 -22 34 5.93 4.94
 22 6 -34 7.61 4.48
 -22 -8 34 -3.54 4.65
 22 -8 -34 3.53 4.34
 8 -22 34 -4.56 4.96
 -8 -22 34 -4.55 4.93
 22 8 -34 10.06 4.7
 10 -22 34 7.6 4.86
 22 -10 -34 -2.87 4.48
 22 10 -34 16.31 4.98
 -10 -22 34 4.24 4.69
 12 -22 34 -4.81 4.65
 22 -12 -34 2.57 4.37
 -22 -12 34 -0.84 4.41
 -12 -22 34 3.78 4.35
 22 -14 -34 -8.2 4.51
 14 -22 34 -5.77 4.59
 -22 -14 34 -5.41 4.87
 -14 -22 34 5.59 5.14
 23 -1 -34 -3.9 4.32
 1 -23 34 6.98 5.4
 23 1 -34 7.17 4.45
 -1 -23 34 -4.64 5.53
 3 -23 34 0.66 5.24
 23 -3 -34 -7.94 4.39
 -3 -23 34 -0.03 5.01
 23 3 -34 3.52 4.46
 23 -5 -34 9.38 4.45
 5 -23 34 4.36 5.26
 -5 -23 34 -7.17 5.21
 23 5 -34 2.61 4.35
 23 -7 -34 -4.31 4.38
 7 -23 34 10.5 5.05
 23 7 -34 2.04 4.55
 -7 -23 34 -0.24 5.3
 23 -9 -34 -1.9 4.58
 9 -23 34 -1.69 5.05
 -9 -23 34 -4.25 5.12
 11 -23 34 -0.39 4.76
 -23 -11 34 -5.02 4.8
 23 -11 -34 -1.91 4.42
 -11 -23 34 -0.78 4.83
 23 11 -34 -1.23 4.83
 24 0 -34 -0.6 4.4
 0 -24 34 -3.9 5.42
 2 -24 34 5.42 5.59
 24 -2 -34 -6.69 4.25
 -2 -24 34 -1.44 5.18
 24 2 -34 1.69 4.5
 4 -24 34 13 5.54
 24 -4 -34 4.76 4.43
 -4 -24 34 -0.96 5.33
 24 4 -34 2.2 4.41
 24 -6 -34 8.25 4.48
 6 -24 34 4.5 5.17
 24 6 -34 6.7 4.54
 -6 -24 34 1.41 5.49
 24 -8 -34 1.64 4.48
 8 -24 34 3.73 5.02
 -8 -24 34 -4.35 5.32
 24 8 -34 -2.87 4.57
 -24 -10 34 -1.52 4.17
 24 -10 -34 5.07 4.41
 10 -24 34 -2.75 4.9
 24 10 -34 6.71 4.75
 -10 -24 34 0.93 5.18
 25 -1 -34 2.39 4.39
 1 -25 34 2.6 5.24
 -1 -25 34 7.9 5.74
 25 1 -34 6.07 4.53
 25 -3 -34 -0.6 4.37
 3 -25 34 -6.57 5.28
 -3 -25 34 -0.02 5.2
 25 3 -34 1.39 4.48
 5 -25 34 -0.42 5.26
 25 -5 -34 -1.56 4.57
 25 5 -34 6.71 4.53
 -5 -25 34 -10.52 5.39
 25 -7 -34 7.78 4.54
 7 -25 34 -0.45 5.23
 -7 -25 34 -0.02 5.51
 25 7 -34 3.83 4.61
 0 -26 34 -2.9 5.58
 2 -26 34 6.78 5.76
 26 -2 -34 5.33 4.58
 -2 -26 34 1.12 5.18
 26 2 -34 1.84 4.45
 0 1 -35 0.48 3.31
 0 -1 -35 3.93 3.81
 -1 0 -35 2 3.47
 1 0 -35 -1.97 3.39
 2 -1 -35 6.66 3.66
 -1 -2 -35 0.11 3.46
 1 2 -35 9.94 3.75
 2 1 -35 10.11 3.76
 -1 2 -35 9.15 3.45
 1 -2 -35 6.3 3.78
 3 0 -35 21.06 4.2
 0 3 -35 22.92 3.87
 0 -3 -35 18.59 4.22
 3 -2 -35 9.69 4.07
 -2 -3 -35 0.46 3.48
 2 3 -35 5.83 3.87
 3 2 -35 6.55 3.94
 2 -3 -35 6.28 4.05
 1 4 -35 0.72 3.55
 4 -1 -35 -2.11 3.66
 -1 -4 -35 0.86 3.63
 4 1 -35 2.37 3.61
 1 -4 -35 -2.3 3.66
 3 4 -35 -1.93 3.56
 4 -3 -35 8.72 4.27
 4 3 -35 -0.69 3.64
 3 -4 -35 3.46 3.85
 0 -5 -35 0.66 3.81
 5 0 -35 2.07 3.93
 2 5 -35 2.55 3.61
 5 -2 -35 2.24 3.93
 -2 -5 35 0.88 4.3
 5 2 -35 3.32 3.72
 2 -5 -35 -6.66 3.72
 5 -4 -35 0.68 4.28
 4 5 -35 6.77 3.67
 4 -5 -35 -1.57 3.84
 5 4 -35 5.85 3.57
 -4 -5 35 -4.27 3.95
 6 -1 -35 7.7 3.69
 1 -6 35 -3.36 4.01
 -6 1 -35 -5.32 3.1
 1 6 -35 0.79 3.64
 -6 -1 -35 4.53 2.88
 -1 -6 35 0.3 3.84
 6 1 -35 0.41 3.75
 3 -6 35 1.93 4.14
 6 -3 -35 -0.6 4.01
 3 6 -35 4.22 3.84
 6 3 -35 -0.86 3.98
 6 -5 -35 -1.56 4.1
 -6 -5 35 -1.25 4.05
 5 6 -35 -4.62 3.76
 -5 -6 35 0.99 4.2
 5 -6 -35 -2.74 4.19
 6 5 -35 -0.83 3.8
 7 0 -35 19.26 4.17
 0 -7 35 9.61 4.16
 -7 0 -35 11.45 3.36
 7 -2 -35 3.67 3.68
 2 -7 35 0.47 4.14
 2 7 -35 -7.07 3.85
 -7 -2 -35 0.5 2.95
 7 2 -35 5.54 3.63
 4 -7 35 1.39 3.91
 4 7 -35 4.14 4.05
 7 -4 -35 3.26 4.01
 7 4 -35 -0.79 3.9
 -7 -4 -35 6.38 3
 -4 -7 35 3.8 4.04
 7 -6 -35 7.85 4.08
 6 -7 35 -1.78 3.93
 -7 -6 35 -6.84 4.18
 6 7 -35 -6.11 4.02
 7 6 -35 7.8 3.97
 -6 -7 35 2.65 3.96
 8 -1 -35 -0.79 4.21
 1 8 -35 -9.3 3.87
 1 -8 35 -3.8 4.11
 -1 -8 35 1.57 3.96
 -8 -1 -35 -4.7 3.05
 8 1 -35 0.24 3.87
 8 -3 -35 -0.6 4.16
 3 -8 35 -0.84 4.1
 3 8 -35 -1.71 4.05
 8 3 -35 1.73 3.67
 -8 -3 -35 3.46 3.14
 -3 -8 35 1.51 4.33
 8 -5 -35 2.36 4.58
 -8 -5 35 0.69 4.13
 5 -8 35 -7.52 3.93
 5 8 -35 -0.76 4.37
 8 5 -35 0.05 4
 -5 -8 35 2.95 4.32
 8 -7 -35 2.26 4.16
 -8 -7 35 -0.46 4.06
 7 -8 35 -1.63 3.9
 7 8 -35 4.63 4.26
 8 7 -35 4.57 4.04
 -7 -8 35 2.92 4.11
 -9 0 -35 -0.21 3.27
 9 0 -35 -0.92 4.18
 0 -9 35 -3.55 4.19
 9 -2 -35 10.39 4.51
 2 9 -35 8.45 3.95
 -9 2 -35 -0.99 3.27
 9 2 -35 3.21 3.77
 -2 -9 35 6.66 4.52
 -9 -2 -35 5.72 3.25
 4 9 -35 -1.35 4.28
 4 -9 35 1.83 4.06
 9 -4 -35 -2.06 4.35
 -9 -4 -35 9.25 3.19
 -4 -9 35 3.12 4.54
 9 4 -35 4.09 3.96
 9 -6 -35 2.47 3.91
 -9 -6 35 -0.21 4.38
 6 9 -35 -4.04 4.18
 6 -9 35 2.89 4.07
 9 6 -35 -1.69 4
 -6 -9 35 -0.4 4.43
 8 9 -35 1.72 4.31
 9 -8 -35 -2.6 4.33
 -9 -8 35 -1.93 4.38
 9 8 -35 -3.42 4.05
 -8 -9 35 -2.39 4.05
 10 -1 -35 -2.44 3.81
 1 10 -35 3.81 4.17
 1 -10 35 -0.34 4.4
 -10 1 -35 -2.66 3.18
 -10 -1 -35 6.65 3.25
 10 1 -35 5.63 3.83
 -1 -10 35 -1.85 4.5
 -10 3 -35 1.6 3.21
 3 10 -35 -2.57 4.37
 10 -3 -35 -1.57 3.79
 3 -10 35 -5.38 4.3
 -3 -10 35 -4.24 4.4
 -10 -3 -35 6.8 3.21
 10 3 -35 0.06 4.01
 10 -5 -35 -1.2 4.18
 5 10 -35 -5.33 4.05
 -10 -5 35 -6.65 3.97
 5 -10 35 -3.12 4.13
 -10 5 -35 -0.97 3.41
 -5 -10 35 2.78 4.67
 10 5 -35 3.77 4.37
 7 -10 35 4.66 3.96
 -10 -7 35 -5.62 4.1
 7 10 -35 1.81 4.2
 10 -7 -35 -4.98 4.27
 10 7 -35 1.25 4.21
 -7 -10 35 4.93 4.22
 -10 -9 35 4.99 4.42
 9 -10 35 -6.85 3.92
 9 10 -35 5.07 4.06
 10 9 -35 -0.38 4.21
 -9 -10 35 -0.23 4.66
 -11 0 -35 11.95 3.22
 11 0 -35 12.43 4.02
 0 11 -35 11.59 4.42
 0 -11 35 3.84 4.71
 2 -11 35 -1.47 4.23
 2 11 -35 5.05 4.61
 11 -2 -35 2.53 4.06
 -11 2 -35 -5.66 3.03
 -11 -2 -35 -1.94 3.07
 -2 -11 35 4.74 4.46
 11 2 -35 0.97 3.87
 4 11 -35 0.23 4.18
 4 -11 35 4.37 4.4
 -11 4 -35 1.52 3.37
 11 -4 -35 5.26 4.37
 11 4 -35 5.58 4.03
 -11 -4 -35 1.88 3.11
 -4 -11 35 -0.99 4.6
 11 -6 -35 -2.18 4.23
 -11 6 -35 0.64 3.25
 6 -11 35 -3.64 4.18
 6 11 -35 -0.78 4.77
 -11 -6 35 -1.92 4.21
 11 6 -35 6.92 4.44
 -6 -11 35 7.31 4.41
 8 11 -35 10.08 4.74
 11 -8 -35 2.07 4.31
 -11 -8 35 -3.21 4.03
 8 -11 35 0.42 4.06
 -8 -11 35 6.25 4.41
 11 8 -35 5.78 4.63
 10 11 -35 1.35 4.87
 10 -11 35 2.22 3.79
 -11 -10 35 4.44 4.44
 11 -10 35 -4.27 3.79
 -10 -11 35 3.95 4.05
 11 10 -35 0.98 4.81
 1 -12 35 -3.23 4.63
 1 12 -35 4.83 4.34
 12 -1 -35 -0.45 4.3
 -12 1 -35 -0.09 3.11
 12 1 -35 2 4.27
 -12 -1 -35 -0.02 3.15
 -1 -12 35 -6.11 4.61
 3 -12 35 -9.26 4.39
 12 -3 -35 -0.12 4.26
 -12 3 -35 -0.51 3.1
 3 12 -35 1.81 4.21
 12 3 -35 1.42 4.22
 -12 -3 -35 -3.26 3.05
 -3 -12 35 0.91 4.67
 -12 -5 35 -1.4 4.25
 5 12 -35 7.44 4.54
 -12 5 -35 4.7 3.19
 5 -12 35 -8.62 4.22
 12 -5 -35 -1.86 4.07
 -5 -12 35 5.4 4.51
 12 5 -35 -3.03 4.44
 12 -7 -35 -2.86 4.29
 7 -12 35 1.13 4.15
 7 12 -35 7.89 4.43
 -12 -7 35 -7.35 4.46
 12 7 -35 6.42 4.74
 -7 -12 35 0.58 4.31
 12 -9 -35 2.68 4.12
 9 -12 35 1.31 4.03
 9 12 -35 12.57 4.69
 -12 -9 35 -4.68 4.51
 -9 -12 35 5.49 3.98
 12 9 -35 1.48 4.64
 11 -12 35 3.23 3.86
 -12 -11 35 0.05 3.95
 11 12 -35 7.87 4.61
 -11 -12 35 -3.78 3.96
 12 -11 35 -4.46 3.7
 0 -13 35 10.76 4.81
 -13 0 -35 4.01 3.18
 13 0 -35 3.98 4.13
 2 -13 35 4.53 4.59
 -13 2 -35 6.38 3.11
 2 13 -35 7.97 4.4
 13 -2 -35 9.62 3.95
 13 2 -35 11.13 4.21
 -2 -13 35 7.97 4.84
 -13 -2 -35 13.5 3.12
 4 -13 35 0.99 4.56
 13 -4 -35 6.46 4.35
 4 13 -35 4.25 4.45
 -13 4 -35 6.03 3.1
 -4 -13 35 6.78 4.55
 -13 -4 -35 -2.09 3.08
 13 4 -35 0.48 4.42
 6 -13 35 10.7 4.37
 -13 -6 35 -0.32 3.96
 6 13 -35 13.84 5.14
 -13 6 -35 4.08 2.97
 13 -6 -35 7.14 4.19
 -6 -13 35 9.44 4.6
 13 6 -35 -1.73 4.69
 13 -8 -35 -5.39 4.2
 8 13 -35 7.69 5.05
 -13 -8 35 -5.03 3.93
 8 -13 35 -0.69 4.19
 -8 -13 35 -8.1 4.05
 13 8 -35 4.59 4.51
 -13 -10 35 -4.07 4.52
 13 -10 -35 -2.75 4.06
 10 -13 35 5.36 4.06
 13 10 -35 2.68 4.35
 -10 -13 35 0.44 4.2
 -13 -12 35 -3.67 4.01
 12 -13 35 -5.45 3.9
 12 13 -35 9.82 5.07
 -12 -13 35 -5.59 3.97
 13 12 -35 9.76 5.21
 13 -12 35 -1.34 3.61
 14 -1 -35 3.21 4.11
 -14 1 -35 1.48 2.98
 1 -14 35 -5.41 4.46
 -14 -1 -35 -0.25 3.04
 14 1 -35 5.64 3.95
 -1 -14 35 -7.68 4.59
 -14 3 -35 9.65 3.01
 14 -3 -35 4.97 4.42
 3 -14 35 -6.79 4.79
 -14 -3 -35 3.89 3.1
 14 3 -35 -3.89 4.06
 -3 -14 35 -0.9 4.42
 14 -5 -35 -0.66 4.24
 -14 5 -35 -1.56 2.95
 5 -14 35 -8.54 4.39
 14 5 -35 2.15 4.48
 -14 -5 -35 1.42 3.06
 -5 -14 35 -1.78 5.05
 14 -7 -35 1.8 4.19
 -14 -7 35 -9.38 4.55
 7 14 -35 -5.49 4.97
 7 -14 35 -2.43 4.29
 14 7 -35 4.46 4.51
 -7 -14 35 -0.91 4.34
 9 -14 35 7.31 4.23
 14 -9 -35 0.68 4.2
 -14 -9 35 4.49 4.36
 9 14 -35 6.92 5.27
 -9 -14 35 3.32 4.33
 14 9 -35 7.09 4.45
 -14 -11 35 0.27 4.21
 11 14 -35 -1.16 5.24
 14 -11 -35 -0.78 4.45
 11 -14 35 3.12 4.05
 -11 -14 35 8.17 4.35
 14 11 -35 -0.71 4.91
 13 -14 35 1.87 3.82
 -14 -13 35 -1.91 4.03
 14 13 -35 2.7 4.99
 -13 -14 35 6.32 4.11
 14 -13 35 4.35 3.61
 15 0 -35 1.18 4.5
 0 -15 35 -6.44 4.79
 -15 0 -35 0.99 2.93
 15 -2 -35 6.89 4.21
 2 -15 35 10.11 5.01
 -15 2 -35 6.69 2.99
 15 2 -35 0.44 4.01
 -15 -2 -35 8.44 3.07
 -2 -15 35 9.5 4.96
 4 -15 35 0.02 4.71
 -15 -4 -35 5.88 3.09
 15 4 -35 1.19 4.11
 -4 -15 35 3.91 4.7
 6 -15 35 4.4 4.56
 15 -6 -35 -1.62 4.2
 -15 -6 35 3.6 4.07
 15 6 -35 12.14 4.51
 -6 -15 35 3.15 4.66
 15 -8 -35 0.74 4.23
 -15 -8 35 -3.79 3.98
 8 -15 35 7.06 4.47
 -8 -15 35 -3.64 4.19
 15 8 -35 -8.78 4.45
 15 -10 -35 0.32 4.59
 10 -15 35 1.71 4.19
 -15 -10 35 7.32 4.74
 15 10 -35 -0.89 4.4
 -10 -15 35 1.49 4.07
 12 -15 35 3.2 4.08
 -15 -12 35 -4.58 4.43
 15 12 -35 4.47 4.95
 -12 -15 35 5.2 4.1
 -15 -14 35 -2.23 4.73
 14 -15 35 3.13 3.78
 -14 -15 35 5.84 4.82
 15 -14 35 -0.26 3.63
 -16 1 -35 1.32 2.67
 16 -1 -35 8.2 4.18
 1 -16 35 2.11 5
 -16 -1 -35 0.94 2.99
 -1 -16 35 2.63 4.92
 16 1 -35 3.42 4.16
 3 -16 35 9.15 4.86
 16 -3 -35 -2.62 4.29
 -3 -16 35 0.63 4.81
 16 3 -35 -0.6 4.19
 -16 -3 -35 -1.75 2.99
 5 -16 35 0.75 4.81
 16 -5 -35 -4.64 4.3
 -16 -5 -35 6.48 3.05
 16 5 -35 -1.85 4.22
 -16 -7 35 -3.6 4.33
 7 -16 35 3.49 4.66
 16 -7 -35 2.44 4.35
 16 7 -35 4.45 4.58
 -7 -16 35 -1.49 4.81
 16 -9 -35 1.23 4.77
 9 -16 35 -4.66 4.51
 -16 -9 35 -4.93 3.94
 -9 -16 35 3.03 4.48
 16 9 -35 1.56 4.29
 16 -11 -35 0.32 4.21
 11 -16 35 -0.53 4.19
 -16 -11 35 6.96 4.67
 16 11 -35 -2.37 5.11
 -11 -16 35 5.26 4.52
 13 -16 35 8.21 3.99
 -16 -13 35 0.24 4.91
 -13 -16 35 4.86 4.96
 16 13 -35 -1.05 5.16
 15 -16 35 3.18 4.21
 -16 -15 35 12.14 4.47
 -15 -16 35 -5.85 4.25
 17 0 -35 4.2 4.36
 0 -17 35 6.21 5.4
 17 -2 -35 8.68 4.2
 2 -17 35 16.67 5.35
 17 2 -35 14.48 4.17
 -2 -17 35 13.61 5.08
 17 -4 -35 3.52 4.45
 4 -17 35 3.91 4.98
 17 4 -35 2.84 4.52
 -17 -4 -35 8.12 3.08
 -4 -17 35 6.69 4.63
 6 -17 35 -1.92 4.94
 17 -6 -35 5.54 4.57
 -6 -17 35 0.97 4.97
 17 6 -35 -2.6 4.34
 -17 -8 35 3.12 4.51
 8 -17 35 -0.18 4.71
 17 -8 -35 -3.41 4.4
 17 8 -35 9.24 4.78
 -8 -17 35 5.51 5.14
 -17 -10 35 8.86 4.2
 17 -10 -35 0.35 4.28
 10 -17 35 4.12 4.55
 12 -17 35 2.42 4.32
 17 -12 -35 4.32 4.43
 -17 -12 35 10.71 4.64
 -12 -17 35 -0.55 4.64
 -17 -14 35 -4.16 4.33
 14 -17 35 6.3 3.9
 -14 -17 35 6.63 4.04
 -17 -16 35 5.66 4.61
 -16 -17 35 -1.11 4.82
 18 -1 -35 5.65 4.12
 1 -18 35 0.73 4.97
 18 1 -35 0.17 4.36
 -1 -18 35 0.39 5.15
 18 -3 -35 -2.17 4.26
 3 -18 35 0.64 5.07
 -3 -18 35 -3.6 5.16
 5 -18 35 -4.88 5
 18 -5 -35 -4.37 4.4
 -5 -18 35 -2.46 4.85
 18 5 -35 7.81 4.74
 -18 -5 -35 -1.5 3.01
 -18 -7 35 5.01 4.13
 7 -18 35 -4.37 4.93
 18 -7 -35 2.06 4.34
 -7 -18 35 -3.93 4.44
 18 7 -35 5.91 4.33
 18 -9 -35 5.09 4.26
 -18 -9 35 -2.07 4.37
 -9 -18 35 0.16 4.47
 18 9 -35 2.02 4.63
 18 -11 -35 -4.45 4.65
 -18 -11 35 8.62 4.08
 11 -18 35 0.71 4.38
 18 11 -35 10.96 5.14
 -11 -18 35 -0.87 4.17
 -18 -13 35 5.34 4.11
 13 -18 35 4 4.22
 18 -13 -35 -4.82 4.67
 18 13 -35 -5.78 5.46
 -13 -18 35 0.44 4.38
 15 -18 35 9.01 4.21
 -18 -15 35 3.68 4.66
 -18 -17 35 9.59 4.11
 -17 -18 35 1.44 4.09
 0 -19 35 -1.46 4.91
 19 0 -35 -10.37 4.27
 2 -19 35 -4.77 5
 19 -2 -35 6.35 4.29
 19 2 -35 -0.38 4.21
 -2 -19 35 -0.53 5.22
 4 -19 35 -3.15 4.99
 19 -4 -35 -6.02 4.07
 -4 -19 35 -9.3 4.9
 19 4 -35 -0.31 4.32
 19 -6 -35 4.18 4.1
 6 -19 35 -7.18 5.02
 -6 -19 35 -1.15 5.18
 19 6 -35 0.98 4.65
 -19 -6 -35 -0.99 2.99
 19 -8 -35 -0.4 4.36
 -19 -8 35 -1.23 4.27
 8 -19 35 -3.48 4.8
 -8 -19 35 -1.4 5.22
 19 8 -35 6.63 4.66
 19 -10 -35 -0.96 4.57
 -19 -10 35 -1.06 4.71
 10 -19 35 -5.18 4.72
 -10 -19 35 -1.3 5.08
 19 10 -35 -0.43 4.64
 12 -19 35 -0.98 4.34
 19 -12 -35 -10.42 4.57
 -19 -12 35 -2.41 4.45
 19 12 -35 9.38 5.02
 -12 -19 35 -4.95 4.83
 14 -19 35 -1.4 4.17
 19 -14 -35 -1.78 4.53
 -19 -14 35 4.5 4.99
 -14 -19 35 -2.44 4.2
 -19 -16 35 0.82 4.16
 1 -20 35 9.48 4.99
 20 -1 -35 -1.03 4.26
 20 1 -35 -4.02 4.51
 -1 -20 35 1.55 5.12
 20 -3 -35 7.64 4.31
 3 -20 35 0.94 5.07
 -3 -20 35 12.44 5.41
 5 -20 35 2.74 5.06
 20 -5 -35 -0.74 4.18
 20 5 -35 2.07 4.29
 -5 -20 35 -1.73 4.88
 7 -20 35 -4.32 4.99
 20 -7 -35 1.72 4.31
 -7 -20 35 6.22 4.69
 20 7 -35 1.57 4.59
 20 -9 -35 -1.33 4.48
 -20 -9 35 -3.68 4.45
 9 -20 35 -0.57 4.92
 20 9 -35 7.81 4.97
 -9 -20 35 2.87 4.43
 20 -11 -35 -3.76 4.43
 11 -20 35 -6.53 4.55
 -20 -11 35 -2.27 4.83
 -11 -20 35 1.49 4.34
 13 -20 35 6.32 4.46
 20 -13 -35 1.72 4.52
 -20 -13 35 1.81 4.76
 -13 -20 35 9.3 4.77
 -20 -15 35 1.58 4.18
 -15 -20 35 -1.93 4.56
 21 0 -35 -1.58 4.5
 0 -21 35 -3.01 5.08
 2 -21 35 0.14 5.04
 21 -2 -35 4.34 4.42
 -2 -21 35 -12.23 5.55
 21 2 -35 -0.75 4.43
 4 -21 35 -3.68 5.08
 21 -4 -35 10.65 4.5
 21 4 -35 4.16 4.44
 -4 -21 35 0.51 4.78
 6 -21 35 -7.32 5.13
 21 -6 -35 -4.25 4.5
 -6 -21 35 -0.24 5.14
 21 6 -35 -0.27 4.31
 -21 -8 35 -3.21 4.56
 21 -8 -35 3.72 4.31
 8 -21 35 -1.25 4.88
 -8 -21 35 -4.32 5.17
 21 8 -35 -2.8 4.62
 10 -21 35 -5.15 4.71
 21 -10 -35 3.59 4.44
 -21 -10 35 -1.86 4.23
 -10 -21 35 3.27 5.11
 21 10 -35 9.89 4.79
 21 -12 -35 -3.73 4.33
 -21 -12 35 -4.13 4.31
 12 -21 35 -3.09 4.66
 21 12 -35 -6.25 5.06
 -12 -21 35 -2.46 4.51
 14 -21 35 9.95 4.48
 21 -14 -35 3.45 4.44
 -21 -14 35 1.41 4.36
 -14 -21 35 3.38 4.24
 1 -22 35 -5.37 5.24
 22 -1 -35 -2.89 4.38
 -1 -22 35 -4.22 5.56
 22 1 -35 4.28 4.48
 22 -3 -35 -4.64 4.34
 3 -22 35 -5.67 5.1
 22 3 -35 6.46 4.47
 -3 -22 35 -0.87 4.95
 22 -5 -35 4.15 4.48
 5 -22 35 0.68 5.23
 -5 -22 35 0.59 5.41
 22 5 -35 -3.02 4.36
 7 -22 35 -6.46 5.05
 22 -7 -35 -0.18 4.24
 -7 -22 35 -3.66 5.2
 22 -9 -35 -4.6 4.51
 9 -22 35 -1.67 4.85
 -22 -9 35 0.33 4.8
 -9 -22 35 -4.29 5.01
 11 -22 35 -0.81 4.86
 22 -11 -35 6.18 4.35
 -22 -11 35 -4.32 4.64
 22 11 -35 -8.38 4.81
 -11 -22 35 7.71 5.14
 22 -13 -35 -1.4 4.31
 13 -22 35 0.03 4.5
 -22 -13 35 3.08 5.03
 -13 -22 35 -0.58 4.82
 0 -23 35 -5.11 5.5
 23 -2 -35 1.91 4.31
 2 -23 35 3.46 5.53
 23 2 -35 0.62 4.46
 -2 -23 35 2.94 5.06
 4 -23 35 -5.07 5.39
 23 -4 -35 -6.83 4.4
 -4 -23 35 -3.3 5.55
 23 -6 -35 0.77 4.38
 6 -23 35 5.58 5.19
 23 6 -35 1.41 4.47
 -6 -23 35 3.02 4.97
 23 -8 -35 5.59 4.53
 8 -23 35 -3.59 4.97
 23 8 -35 6.54 4.67
 -23 -10 35 -3.48 4.46
 23 -10 -35 -4.21 4.28
 10 -23 35 0.97 4.77
 23 10 -35 1.95 4.89
 -10 -23 35 -2.47 4.5
 1 -24 35 4.03 5.38
 24 -1 -35 12.6 4.39
 24 1 -35 4.44 4.52
 -1 -24 35 -0.43 5.15
 3 -24 35 -6.08 5.28
 24 -3 -35 -0.82 4.28
 24 3 -35 2.26 4.5
 -3 -24 35 -2.23 5.56
 24 -5 -35 7.05 4.55
 5 -24 35 4.72 5.24
 -5 -24 35 -4.43 4.99
 24 5 -35 -0.8 4.39
 7 -24 35 -0.18 5.11
 24 -7 -35 5.4 4.52
 24 7 -35 -3.67 4.65
 -7 -24 35 1.8 4.65
 24 -9 -35 -0.4 4.32
 9 -24 35 -0.24 5.02
 -9 -24 35 -0.6 4.49
 0 -25 35 -8.37 5.56
 25 0 -35 -1.96 4.46
 25 -2 -35 1.54 4.38
 2 -25 35 10.91 5.35
 -2 -25 35 5.95 5.43
 25 2 -35 7.64 4.48
 25 -4 -35 7.17 4.58
 -4 -25 35 -2.17 5.31
 25 4 -35 4.06 4.42
 6 -25 35 6.6 5.31
 25 -6 -35 0.73 4.49
 -6 -25 35 -4.07 4.77
 25 6 -35 3.43 4.54
 0 0 -36 18.5 3.71
 1 1 -36 5.69 3.85
 -1 1 -36 -4.56 3.41
 -1 -1 -36 -3.52 3.37
 1 -1 -36 -1.24 3.77
 0 2 -36 346.86 14.27
 0 -2 -36 353.25 14.43
 1 3 -36 13.33 3.67
 -1 -3 -36 6.84 3.63
 3 1 -36 2.18 3.61
 -1 3 -36 12.01 3.32
 1 -3 -36 8.73 4.05
 3 -3 -36 -0.84 4.18
 3 3 -36 -0.53 3.64
 0 4 -36 26.04 3.57
 4 0 -36 28.02 4.1
 2 4 -36 87.34 6.34
 -2 -4 -36 89.08 6.17
 4 -2 -36 99.69 6.69
 4 2 -36 77.47 6.44
 2 -4 -36 94.42 6.7
 4 4 -36 57.22 4.28
 5 -1 -36 -1.93 3.57
 1 5 -36 -0.24 3.57
 -1 -5 -36 -1.37 3.61
 1 -5 -36 -2.83 3.83
 5 1 -36 -3.43 3.87
 3 5 -36 18.22 3.85
 5 -3 -36 26.25 4.26
 -3 -5 -36 32.11 6.54
 5 3 -36 22.83 4.09
 3 -5 -36 23 4.24
 5 5 -36 6.22 3.61
 -5 -5 36 -3.98 4.52
 5 -5 -36 0.73 4.14
 -6 0 -36 50.8 3.99
 0 6 -36 65.69 4.57
 6 0 -36 49.7 4.48
 2 6 -36 315.27 12.71
 2 -6 36 277.7 12.58
 6 -2 -36 300.02 12.61
 -6 2 -36 296.67 12.14
 -2 -6 36 304.35 12.66
 2 -6 -36 278.96 12.59
 6 2 -36 293.86 12.59
 4 6 -36 19.61 3.95
 6 4 -36 16.18 4.2
 4 -6 -36 22.82 4.47
 -4 -6 36 17.35 4.14
 -6 -6 36 96.21 6.97
 6 -6 -36 100.03 7.47
 1 -7 36 3.63 4.2
 7 -1 -36 2.4 3.75
 1 7 -36 8.06 3.92
 7 1 -36 4.96 4.07
 -1 -7 36 0.01 4.3
 -7 -1 -36 2.07 2.97
 3 -7 36 4.1 4.19
 7 -3 -36 -3.43 3.83
 3 7 -36 10.8 4.22
 7 3 -36 -4.17 3.55
 -7 -3 -36 3.16 3.08
 -3 -7 36 -1.87 3.88
 -7 -5 36 7 4.45
 7 -5 -36 5.43 4.07
 5 -7 36 7.47 3.99
 5 7 -36 -0.98 4.29
 -5 -7 36 8.15 4.2
 7 5 -36 6.17 4.25
 -7 -7 36 -1.64 3.94
 7 7 -36 -0.69 4.05
 7 -7 -36 -1.06 4.4
 8 0 -36 6.36 4.1
 -8 0 -36 1.94 3.31
 0 -8 36 6.51 4.27
 2 -8 36 52.29 4.77
 2 8 -36 47.39 4.53
 8 -2 -36 52.04 4.72
 -2 -8 36 55.87 4.85
 8 2 -36 44.09 4.59
 8 -4 -36 2.83 4.38
 4 8 -36 -0.46 4.24
 4 -8 36 7.07 4.21
 -4 -8 36 6.7 4.49
 -8 -4 -36 2.52 3.12
 8 4 -36 1.1 3.55
 -8 -6 36 21.38 4.3
 6 -8 36 27.39 4.2
 8 -6 -36 21.37 4.59
 6 8 -36 29.93 4.6
 -6 -8 36 33.14 4.52
 8 6 -36 29.72 4.62
 8 -8 -36 -4.72 4.27
 8 8 -36 12.87 4.29
 -8 -8 36 4.51 4
 1 9 -36 3.79 4.02
 -9 1 -36 -0.09 3.4
 1 -9 36 -3.55 4.16
 9 -1 -36 2.89 4.43
 -1 -9 36 -2.24 4.35
 -9 -1 -36 1.97 3.24
 9 1 -36 -0.46 4.35
 -9 3 -36 -4.29 3.27
 3 9 -36 2.26 4.32
 3 -9 36 10.02 4.15
 9 -3 -36 3.55 4.35
 9 3 -36 2.15 3.76
 -9 -3 -36 6.62 3.11
 -3 -9 36 -4.94 4.61
 9 -5 -36 8.98 4.18
 5 -9 36 -0.19 4.06
 -9 -5 36 -0.15 4.4
 9 5 -36 4.79 3.75
 -5 -9 36 0.48 4.56
 -9 -7 36 -4.75 4.3
 9 -7 -36 5.56 4.45
 7 9 -36 3.62 4.16
 7 -9 36 -1.62 3.85
 -7 -9 36 0.68 4.23
 9 7 -36 0.73 4.25
 9 9 -36 3.69 4.41
 0 -10 36 13.89 4.52
 0 10 -36 23.5 4.28
 -10 0 -36 12.43 3.32
 10 0 -36 13.95 4.07
 2 10 -36 19.97 4.68
 -10 2 -36 11.68 3.26
 10 -2 -36 7.93 4.07
 2 -10 36 9.82 4.54
 10 2 -36 13.46 4.07
 -10 -2 -36 10.94 3.2
 -2 -10 36 16.61 4.8
 4 10 -36 -4.98 4.11
 4 -10 36 -4.37 4.28
 10 -4 -36 4.91 4.07
 -10 4 -36 4.38 3.27
 -10 -4 -36 -1.31 3.16
 10 4 -36 2.3 3.9
 -4 -10 36 9.09 4.69
 -10 -6 36 7.26 4.07
 6 10 -36 16.27 4.47
 6 -10 36 10.44 4.26
 -6 -10 36 3.48 4.54
 10 6 -36 5.35 4.01
 8 -10 36 4.81 4.09
 8 10 -36 2.68 4.52
 -10 -8 36 -1.11 4.54
 10 -8 -36 2.41 4.37
 -8 -10 36 -7.14 3.96
 10 8 -36 0.36 3.99
 -10 -10 36 -2.03 4.34
 10 -10 36 -6.52 3.82
 10 10 -36 2.08 4.19
 1 -11 36 -3.58 4.46
 11 -1 -36 4.14 3.95
 1 11 -36 7.57 4.45
 11 1 -36 6.87 4
 -11 -1 -36 1.97 3.17
 -1 -11 36 6.53 4.8
 -11 3 -36 -3.95 3.3
 3 -11 36 -0.94 4.41
 11 -3 -36 0.83 3.92
 3 11 -36 9.87 4.25
 11 3 -36 0.6 3.71
 -3 -11 36 -1.31 4.54
 -11 -3 -36 -6.15 3.15
 -11 5 -36 7.5 3.42
 11 -5 -36 7.14 4.44
 5 11 -36 3.32 4.62
 5 -11 36 4.72 4.26
 11 5 -36 4.17 3.77
 -5 -11 36 2.74 4.64
 -11 -5 -36 7.72 3.23
 7 11 -36 8.3 4.44
 11 -7 -36 5 4.47
 7 -11 36 -1.81 4.02
 -11 -7 36 3.54 4.04
 -7 -11 36 6.98 4.08
 -11 -9 36 -4.13 3.99
 9 11 -36 6.79 4.64
 9 -11 36 -2.88 3.91
 11 -9 -36 -2.77 4.53
 11 9 -36 5.12 4.38
 -9 -11 36 1.6 4.62
 11 -11 36 -0.25 3.79
 11 11 -36 -6.08 4.82
 -11 -11 36 3.05 4.69
 0 12 -36 178 9.1
 -12 0 -36 169.05 8.07
 0 -12 36 157.97 9.02
 12 0 -36 163.9 8.71
 -12 2 -36 53.15 3.81
 12 -2 -36 51.68 4.93
 2 12 -36 44.25 4.64
 2 -12 36 39.96 4.77
 -2 -12 36 44.41 5.27
 12 2 -36 40.33 4.29
 4 -12 36 51.68 5.07
 12 -4 -36 45.26 4.82
 -12 4 -36 61.59 4.05
 4 12 -36 48.31 5.04
 -4 -12 36 58.94 5.32
 12 -6 -36 -3.56 4.61
 -12 6 -36 3.89 3.16
 6 -12 36 -0.22 4.26
 -12 -6 36 -7.48 4.48
 6 12 -36 6.34 4.54
 -6 -12 36 7.08 4.14
 12 6 -36 -7.06 4.12
 -12 -8 36 5.22 4.48
 12 -8 -36 7.76 4.51
 8 -12 36 4.32 4.23
 12 8 -36 -4.73 4.43
 10 -12 36 1.28 3.96
 10 12 -36 11.97 4.77
 12 -10 -36 3.06 4.34
 -12 -10 36 1.54 4.43
 12 10 -36 1.13 4.81
 -10 -12 36 1.87 4.54
 12 12 -36 16.54 4.64
 -12 -12 36 8.28 4.62
 12 -12 36 7.61 3.86
 1 13 -36 7.87 4.4
 1 -13 36 9.42 4.54
 13 -1 -36 4.18 4.36
 13 1 -36 4.3 4.16
 -1 -13 36 7.47 4.75
 -13 -1 -36 9.86 3.19
 3 13 -36 9.96 4.44
 -13 3 -36 0.14 3.22
 13 -3 -36 6.09 3.98
 3 -13 36 6.49 4.64
 -3 -13 36 -2.94 4.59
 13 3 -36 0.29 3.8
 -13 -3 -36 3.07 3.13
 -13 5 -36 17.12 3.17
 5 13 -36 32.27 5.15
 5 -13 36 23.45 4.64
 13 -5 -36 30.09 4.76
 13 5 -36 22.16 4.19
 -13 -5 -36 24.91 3.34
 7 13 -36 4.79 4.67
 7 -13 36 -1.39 4.27
 -13 -7 36 -6.99 4.25
 13 -7 -36 -8.16 4.53
 -7 -13 36 3.4 4.65
 9 -13 36 2.56 4.16
 -13 -9 36 1.72 4
 13 -9 -36 0.22 4.46
 9 13 -36 6.13 4.56
 -9 -13 36 6.28 4.84
 13 9 -36 10.79 4.78
 -13 -11 36 0.91 4.72
 11 13 -36 6.16 4.65
 11 -13 36 -3.46 3.97
 -11 -13 36 5.38 4.59
 13 11 -36 3.12 4.59
 13 13 -36 8.86 5.4
 13 -13 36 1.23 3.8
 -13 -13 36 -4.54 4.72
 0 -14 36 225.9 11.44
 -14 0 -36 246.36 10.21
 14 0 -36 243.92 11.03
 2 -14 36 98.21 7.63
 14 -2 -36 98.64 7.35
 -14 2 -36 117.91 6.04
 -14 -2 -36 111.42 6.29
 -2 -14 36 103.95 8.18
 14 2 -36 113.98 7.32
 14 -4 -36 76.74 5.4
 4 -14 36 76.6 5.65
 -14 4 -36 71.96 5.24
 -14 -4 -36 77.74 5.52
 -4 -14 36 83.98 5.82
 14 4 -36 75.54 5.32
 -14 -6 36 9.34 4.15
 6 -14 36 11.26 4.58
 6 14 -36 21.99 5.14
 14 -6 -36 9.23 4.65
 14 6 -36 11.35 4.28
 -6 -14 36 2.39 4.55
 8 14 -36 10.4 5.3
 8 -14 36 22.98 4.44
 -14 -8 36 13.9 4.4
 14 -8 -36 17.38 4.71
 14 8 -36 12.45 4.61
 -8 -14 36 13.83 4.88
 10 14 -36 -1.79 5.21
 -14 -10 36 6.41 4.24
 10 -14 36 4.4 4.12
 14 -10 -36 3.33 4.15
 14 10 -36 -2.22 4.56
 -10 -14 36 7.44 4.55
 12 14 -36 13.61 5.44
 12 -14 36 -1.66 3.97
 -14 -12 36 7.76 4.89
 14 12 -36 3.63 4.99
 -12 -14 36 2.44 4.76
 14 14 -36 19.62 5.17
 14 -14 36 22.44 3.86
 -14 -14 36 24.72 4.8
 -15 1 -36 4.65 2.91
 15 -1 -36 8.04 4.37
 15 1 -36 -1.31 3.89
 -15 -1 -36 1.64 3.18
 -1 -15 36 3.12 5.11
 3 -15 36 9.51 4.73
 15 -3 -36 -1.87 3.93
 15 3 -36 5.22 4.3
 -15 -3 -36 -2.65 2.97
 -3 -15 36 -2.77 4.89
 15 -5 -36 -5.97 4.32
 5 -15 36 -0.55 4.61
 -15 -5 -36 -3.15 3
 -5 -15 36 -5.37 4.51
 15 5 -36 -6.77 4.23
 7 -15 36 1.09 4.44
 15 -7 -36 13.74 4.63
 -15 -7 36 3.35 4.28
 15 7 -36 7.21 4.23
 -7 -15 36 7.16 4.65
 9 -15 36 7.84 4.29
 15 -9 -36 -0.82 4.38
 -15 -9 36 3.68 4.04
 -9 -15 36 6.34 4.83
 15 9 -36 7.83 4.67
 15 -11 -36 5.92 4.54
 11 -15 36 6.77 4.14
 -15 -11 36 -2.94 4.42
 15 11 -36 9.91 4.73
 -11 -15 36 3.97 4.68
 -15 -13 36 0.16 4.58
 13 -15 36 -1.51 3.95
 -13 -15 36 4.16 4.62
 15 -13 36 1.5 5.36
 15 13 -36 6.46 5.02
 -15 -15 36 -0.11 4
 16 0 -36 253.98 11.35
 0 -16 36 242.96 12.05
 2 -16 36 134.31 9.09
 16 -2 -36 145.65 8.54
 -2 -16 36 152.29 8.97
 16 2 -36 153.28 8.46
 -16 -2 -36 140.18 7.12
 16 -4 -36 71.04 5.42
 4 -16 36 81.04 5.94
 -16 -4 -36 68.81 5.32
 16 4 -36 83.1 6.87
 -4 -16 36 85.61 6.18
 16 -6 -36 15.87 4.51
 6 -16 36 21.04 4.92
 16 6 -36 22.04 4.43
 -6 -16 36 12.89 4.53
 -16 -8 36 19.4 4.74
 8 -16 36 11.63 4.59
 16 -8 -36 6.41 4.39
 16 8 -36 8.75 4.65
 -8 -16 36 9.93 4.62
 10 -16 36 -4.47 4.2
 16 -10 -36 -3.58 4.45
 -16 -10 36 -1.28 3.96
 16 10 -36 -3.66 4.54
 -10 -16 36 -1.56 4.65
 12 -16 36 11.63 4.12
 16 -12 -36 3.89 4.21
 -16 -12 36 6.38 4.42
 -12 -16 36 11.43 4.45
 16 12 -36 12.46 5.22
 -16 -14 36 6.84 4.06
 -14 -16 36 3.51 4.02
 -16 -16 36 36.15 5.17
 17 -1 -36 -2.94 4.22
 1 -17 36 1.1 5.11
 -1 -17 36 7.58 5.19
 17 1 -36 -5.28 4.24
 3 -17 36 5.05 4.92
 17 -3 -36 -1.58 3.94
 17 3 -36 0.24 4.1
 -3 -17 36 1.07 4.72
 -17 -3 -36 5.93 3.12
 17 -5 -36 5.39 4.14
 5 -17 36 16.73 5.16
 -5 -17 36 12.5 5.34
 17 5 -36 9.64 4.57
 17 -7 -36 18.7 4.24
 -17 -7 36 11.46 4.17
 17 7 -36 25.77 4.39
 -7 -17 36 15.23 4.65
 17 -9 -36 15.8 4.48
 -17 -9 36 15.62 4.71
 9 -17 36 21.35 4.59
 -9 -17 36 15.88 4.45
 17 9 -36 27.6 4.87
 17 -11 -36 2.12 4.35
 -17 -11 36 3.93 3.99
 -11 -17 36 -4.94 4.24
 -17 -13 36 3.04 4.07
 13 -17 36 9.33 4.11
 17 -13 -36 4.23 4.27
 -13 -17 36 6.08 4.38
 17 13 -36 16.62 5.08
 -17 -15 36 5.6 4.73
 15 -17 36 3.64 5.95
 -15 -17 36 2.88 4.7
 -17 -17 36 0.31 4.02
 0 -18 36 28.32 5.55
 18 0 -36 17.8 4.61
 2 -18 36 1.78 5.3
 18 -2 -36 -4.32 4.15
 18 2 -36 2.22 4.17
 -2 -18 36 14.7 5.18
 4 -18 36 9.64 5.1
 -18 -4 -36 3.8 3.03
 18 4 -36 2.57 4.22
 -4 -18 36 -5.08 4.78
 6 -18 36 13.81 5.06
 18 -6 -36 4.71 4.14
 -18 -6 -36 1.53 3.04
 -6 -18 36 4.02 5.07
 18 6 -36 9.97 4.66
 8 -18 36 6.67 4.83
 18 -8 -36 6.87 4.43
 -18 -8 36 4.87 4.38
 18 8 -36 5.52 4.4
 -8 -18 36 2.49 5.21
 10 -18 36 14.61 4.63
 -18 -10 36 13.23 4.6
 18 -10 -36 17.92 4.48
 -10 -18 36 18.12 5.08
 18 10 -36 6.71 4.81
 12 -18 36 27.99 4.59
 18 -12 -36 37.5 4.93
 -18 -12 36 20.03 4.58
 18 12 -36 29.37 5.19
 -12 -18 36 37.9 5.14
 14 -18 36 32.06 4.31
 -18 -14 36 40.08 5.29
 18 -14 -36 32.79 4.79
 -14 -18 36 25.72 4.68
 -18 -16 36 21.04 4.22
 -16 -18 36 24.93 4.48
 19 -1 -36 5.47 4.31
 1 -19 36 -3.62 5.18
 -1 -19 36 6.72 5.48
 19 1 -36 4.43 4.4
 19 -3 -36 2.52 4.19
 3 -19 36 -6.44 5.3
 -3 -19 36 8.37 5.25
 5 -19 36 4.47 5.16
 19 -5 -36 5.42 4.24
 19 5 -36 5.68 4.45
 -5 -19 36 1.2 5.06
 7 -19 36 2.01 4.96
 19 -7 -36 3.15 4.43
 -7 -19 36 8.48 4.53
 9 -19 36 4.13 4.7
 -19 -9 36 -3.13 4.37
 19 -9 -36 -5.58 4.33
 -9 -19 36 4.59 4.49
 19 9 -36 5.4 4.84
 19 -11 -36 -0.52 4.55
 11 -19 36 2.74 4.44
 -19 -11 36 -1.84 4.89
 19 11 -36 7.63 4.99
 -11 -19 36 0.79 4.23
 -19 -13 36 -2.28 4.72
 13 -19 36 -6.49 4.35
 19 -13 -36 -2.31 4.52
 -13 -19 36 -0.49 4.16
 19 13 -36 -7.17 5.21
 -19 -15 36 6.69 4.18
 -15 -19 36 4.04 4.86
 0 -20 36 180.54 10.12
 20 0 -36 185.8 9.32
 2 -20 36 129.08 8.9
 20 -2 -36 134.86 7.96
 -2 -20 36 115.29 8.7
 20 2 -36 131.32 7.97
 4 -20 36 60.78 5.97
 20 -4 -36 59.91 5.18
 20 4 -36 59.81 5.2
 20 -6 -36 26.89 4.8
 6 -20 36 27.07 5.14
 20 6 -36 15.38 4.48
 -6 -20 36 20.94 5.33
 20 -8 -36 11.52 4.33
 8 -20 36 8.96 4.99
 20 8 -36 5.27 4.56
 -8 -20 36 13.02 5.29
 20 -10 -36 3.77 4.52
 10 -20 36 9.72 4.88
 -10 -20 36 -4.24 5.11
 20 10 -36 8.83 4.99
 20 -12 -36 1.83 4.34
 -20 -12 36 -5.74 4.49
 12 -20 36 12.96 4.56
 -12 -20 36 8.03 4.87
 20 12 -36 5.33 5.21
 -20 -14 36 0.58 4.15
 14 -20 36 6.33 4.44
 20 -14 -36 12.71 4.61
 -14 -20 36 2.74 4.13
 21 -1 -36 1.23 4.48
 1 -21 36 -2.62 5.22
 -1 -21 36 -0.65 5.47
 21 1 -36 -0.15 4.45
 21 -3 -36 11.82 4.63
 3 -21 36 2.54 5.3
 21 3 -36 11.12 4.59
 5 -21 36 -8.46 5.06
 21 -5 -36 2.92 4.45
 -5 -21 36 2.77 5.45
 21 5 -36 10.21 4.38
 7 -21 36 -1.56 4.91
 21 -7 -36 6.91 4.25
 21 -9 -36 -4.24 4.41
 -21 -9 36 -5.51 4.3
 9 -21 36 -7.68 4.76
 21 9 -36 2.83 4.55
 -9 -21 36 -2.02 4.44
 21 -11 -36 -1.06 4.27
 -21 -11 36 -1.67 4.24
 11 -21 36 5.11 4.67
 21 11 -36 4.44 4.79
 -11 -21 36 -1.8 4.42
 21 -13 -36 2.17 4.31
 -21 -13 36 8.48 4.5
 13 -21 36 12.42 4.49
 -13 -21 36 11.67 5.04
 0 -22 36 21.58 5.67
 22 0 -36 26.95 4.6
 22 -2 -36 14.58 4.48
 2 -22 36 11.36 5.46
 22 2 -36 8.25 4.56
 -2 -22 36 15.33 5.29
 22 -4 -36 7.17 4.42
 -4 -22 36 -0.3 5.29
 22 4 -36 9.51 4.6
 6 -22 36 -5.3 5.07
 22 -6 -36 -3.96 4.22
 -6 -22 36 -2.77 4.68
 22 6 -36 3.3 4.47
 8 -22 36 -5.73 4.83
 22 -8 -36 -2.5 4.54
 -8 -22 36 -4.55 4.76
 22 8 -36 3.8 4.69
 -22 -10 36 -3.38 4.91
 10 -22 36 -4.07 4.76
 22 -10 -36 -1.5 4.28
 -10 -22 36 2.01 4.65
 12 -22 36 9.15 4.73
 -22 -12 36 0.43 4.99
 22 -12 -36 12.3 4.4
 22 12 -36 0.92 5.39
 -12 -22 36 7.26 4.29
 23 -1 -36 -2.33 4.27
 1 -23 36 -4.25 5.32
 -1 -23 36 -8.06 5.09
 23 1 -36 5.38 4.49
 3 -23 36 -3.53 5.29
 23 -3 -36 0.13 4.28
 -3 -23 36 -10.74 5.31
 23 3 -36 5.45 4.6
 23 -5 -36 9.61 4.35
 5 -23 36 -9.33 5.13
 23 5 -36 5.35 4.56
 -5 -23 36 -3.33 4.84
 7 -23 36 -0.56 5.07
 23 -7 -36 -3.08 4.53
 23 7 -36 1.48 4.66
 -7 -23 36 2.37 5.16
 9 -23 36 -2.4 4.85
 23 -9 -36 -0.06 4.34
 -9 -23 36 -4.24 5.12
 23 9 -36 -4.24 4.97
 0 -24 36 50.7 5.73
 24 0 -36 54.61 5.05
 24 -2 -36 36.91 4.62
 2 -24 36 39.2 5.58
 4 -24 36 21.81 5.35
 24 -4 -36 21.69 4.57
 -4 -24 36 23.8 5.1
 24 -6 -36 19.51 4.69
 6 -24 36 23.52 5.38
 24 6 -36 26.91 4.95
 -6 -24 36 28.83 5.52
 24 -8 -36 9.07 4.39
 8 -24 36 5.96 5.1
 -8 -24 36 19.25 5.44
 24 8 -36 17.84 4.97
 25 -1 -36 1.41 4.34
 1 -25 36 2.61 5.59
 25 1 -36 3.96 4.45
 -1 -25 36 -0.97 5.41
 25 -3 -36 -7.45 4.45
 3 -25 36 0.29 5.39
 -3 -25 36 5.86 5.02
 25 3 -36 12.47 4.47
 0 1 -37 3.83 3.66
 1 0 -37 8.36 3.63
 0 -1 -37 4.91 3.75
 -1 0 -37 6.15 3.7
 2 -1 -37 9.42 3.78
 1 2 -37 9.8 3.73
 -1 -2 -37 11.21 3.88
 2 1 -37 2.05 3.45
 -1 2 -37 12.6 3.55
 -2 -1 -37 7.47 4.48
 0 3 -37 38.77 3.94
 0 -3 -37 27.51 4.12
 2 3 -37 26.7 3.9
 -2 -3 -37 31.47 3.9
 3 -2 -37 31.8 4.15
 3 2 -37 36.36 4.04
 -1 -4 -37 -1.69 3.71
 1 4 -37 2.15 3.44
 4 -1 -37 7.86 3.66
 4 1 -37 0.21 4.07
 1 -4 -37 5.2 4.22
 3 4 -37 11.13 3.56
 4 -3 -37 18.88 4.21
 4 3 -37 12.03 3.74
 5 0 -37 13.71 3.77
 0 -5 -37 2.69 4.1
 0 5 -37 11.37 3.56
 2 5 -37 4.13 3.5
 -2 -5 -37 2.4 3.68
 5 -2 -37 9.99 3.86
 2 -5 -37 -1.59 4.22
 5 2 -37 1.79 4.01
 5 -4 -37 5.43 4.17
 4 5 -37 7.66 3.61
 5 4 -37 10.25 3.65
 4 -5 -37 4.63 4.3
 6 -1 -37 8.8 3.64
 1 6 -37 3.82 3.74
 1 -6 -37 1.73 4.15
 -6 -1 -37 3.61 3.89
 6 1 -37 9.08 3.93
 -1 -6 37 5.8 4.2
 6 -3 -37 5.02 3.95
 3 6 -37 13.4 3.98
 6 3 -37 5.86 3.97
 3 -6 -37 6.48 4.27
 -3 -6 37 14.68 4.25
 6 -5 -37 2.94 3.96
 5 6 -37 6.98 3.83
 -5 -6 37 3.96 3.91
 5 -6 -37 3.33 3.98
 6 5 -37 -4.49 3.69
 7 0 -37 12.81 3.7
 -7 0 -37 6.6 3.18
 0 -7 37 -1.17 4.24
 2 -7 37 13.54 4.21
 2 7 -37 16.72 4.08
 7 -2 -37 17.44 3.77
 -7 -2 -37 17.68 3.18
 -2 -7 37 8.65 4.21
 7 2 -37 16.58 4.25
 4 7 -37 1.05 4.29
 4 -7 37 0.32 4.07
 7 -4 -37 0.88 3.83
 -4 -7 37 -1.11 4.25
 7 4 -37 2.69 3.93
 -7 -4 -37 3.3 2.97
 6 7 -37 -5.18 4.39
 7 -6 -37 3.14 4.56
 -7 -6 37 -3.09 3.87
 -6 -7 37 -0.72 4.18
 7 6 -37 1.04 3.73
 6 -7 -37 -0.58 4.29
 8 -1 -37 1.89 3.87
 -8 1 -37 -4.39 3.24
 1 -8 37 0.53 4.29
 1 8 -37 1.42 3.86
 -8 -1 -37 -3.21 3.15
 8 1 -37 6.95 3.91
 -1 -8 37 -2.01 4.13
 3 8 -37 12.25 4.41
 8 -3 -37 -1.39 4.2
 3 -8 37 8.91 4.22
 -8 -3 -37 7.07 3.15
 -3 -8 37 0.04 4.41
 8 3 -37 8.28 4.02
 5 -8 37 6.35 4.16
 5 8 -37 7.71 4.14
 8 -5 -37 2.07 4.65
 -8 -5 -37 8.71 3.08
 8 5 -37 16.27 4.13
 -5 -8 37 4.88 4.55
 -8 -7 37 -8.1 3.88
 7 8 -37 -4.92 4.39
 8 -7 -37 -3.65 4.05
 7 -8 -37 6.53 4.24
 -7 -8 37 -3.95 4.23
 8 7 -37 -1.29 3.93
 -9 0 -37 3.12 3.25
 0 9 -37 12.12 4.16
 9 0 -37 4.78 4.22
 0 -9 37 -4.26 4.16
 9 -2 -37 8.44 4.26
 2 -9 37 6.75 4.21
 2 9 -37 12.91 4.55
 -2 -9 37 11.71 4.57
 -9 -2 -37 14.97 3.28
 9 2 -37 20.35 4.32
 9 -4 -37 6.48 4.23
 4 9 -37 1.44 4.03
 -9 -4 -37 3.87 3.13
 9 4 -37 2.19 3.98
 9 -6 -37 -2.8 4.2
 6 -9 37 3.01 4
 6 9 -37 4.44 4.06
 -9 -6 37 -3.92 4.18
 9 6 -37 0.76 4.19
 -6 -9 37 1.24 4.53
 9 -8 -37 -0.76 4.16
 -9 -8 37 1.09 3.93
 8 -9 37 1.33 4.04
 8 9 -37 -3.75 4.09
 -8 -9 37 -2.26 3.95
 9 8 -37 5.69 4.38
 10 -1 -37 4.17 4.2
 -10 1 -37 -1.75 3.33
 1 10 -37 5.33 4.4
 1 -10 37 -5.05 4.17
 -1 -10 37 -1.34 4.59
 10 1 -37 -4.4 4.14
 -10 -1 -37 -0.7 3.26
 10 -3 -37 5.67 4.16
 -10 3 -37 -0.38 3.26
 3 -10 37 7.24 4.26
 3 10 -37 3.18 4.17
 -10 -3 -37 4.61 3.22
 10 3 -37 0.63 4.24
 -3 -10 37 5.78 4.66
 10 -5 -37 11.51 4.21
 5 10 -37 7.89 4.53
 5 -10 37 5.63 4.18
 -10 -5 -37 7.22 3.22
 10 5 -37 2.01 4.54
 -5 -10 37 6.87 4.73
 7 -10 37 -3.61 4.06
 7 10 -37 8.43 4.73
 -10 -7 37 5.45 4.45
 10 -7 -37 1.33 3.99
 10 7 -37 0.68 4.47
 -7 -10 37 4.02 4.39
 10 -9 -37 -1.87 4
 9 10 -37 -4.48 4.54
 9 -10 37 -9.37 3.82
 -10 -9 37 10.16 4.73
 10 9 -37 -3.65 4.52
 -9 -10 37 1.6 4.48
 11 0 -37 4.66 4.27
 -11 0 -37 2.6 3.27
 0 -11 37 -0.66 4.6
 2 11 -37 9.68 4.12
 2 -11 37 11.58 4.62
 11 -2 -37 9.23 3.95
 -11 2 -37 6.35 3.21
 -2 -11 37 10.35 4.77
 -11 -2 -37 13.2 3.28
 11 2 -37 16.41 4.44
 4 11 -37 5.71 4.49
 11 -4 -37 1.48 4.33
 4 -11 37 -2.67 4.34
 -11 4 -37 2.47 3.48
 11 4 -37 2.12 4.19
 -11 -4 -37 -2.32 3.19
 -4 -11 37 -5.17 4.73
 6 -11 37 6.68 4.21
 -11 -6 37 7.26 4.18
 11 -6 -37 -0.28 4.14
 6 11 -37 3.68 4.12
 11 6 -37 1.66 4.27
 -6 11 -37 10.97 3.33
 -6 -11 37 7.04 4.51
 11 -8 -37 0.16 4.1
 8 -11 37 -6.8 4.01
 -11 -8 37 -5.05 4.45
 8 11 -37 -0.31 4.16
 -8 -11 37 6.85 4.38
 11 8 -37 -0.14 4.27
 10 -11 37 2.87 3.95
 -11 -10 37 -4.03 3.83
 10 11 -37 -2.27 4.37
 11 -10 -37 5.76 4.3
 -10 -11 37 2.06 3.91
 11 10 -37 0.69 4.24
 1 -12 37 2.59 4.35
 12 -1 -37 -3.84 3.93
 -12 1 -37 0.3 3.19
 1 12 -37 7.06 4.18
 -1 -12 37 -2.44 4.56
 -12 -1 -37 0.93 3.22
 12 1 -37 4.53 4.1
 3 -12 37 5.85 4.54
 3 12 -37 4.69 4.34
 12 -3 -37 -1.42 4.35
 -12 3 -37 4.13 3.15
 -12 -3 -37 -1.76 3.2
 -3 -12 37 0.72 4.64
 12 3 -37 4.14 4.08
 5 12 -37 8.08 4.76
 12 -5 -37 12.19 4.11
 -12 5 -37 11.7 3.34
 5 -12 37 12.81 4.47
 12 5 -37 8.67 4.31
 -12 -5 -37 6.49 3.26
 -5 -12 37 10.28 4.38
 -12 -7 37 4.64 3.99
 7 12 -37 13.04 5.07
 12 -7 -37 8.46 4.24
 7 -12 37 7.69 4.16
 12 7 -37 15.04 4.28
 -7 -12 37 9.15 4.47
 12 -9 -37 4.69 4.26
 -12 -9 37 5 4.38
 9 12 -37 12.79 4.9
 9 -12 37 0.65 4.03
 -9 -12 37 4.02 4.16
 11 -12 37 3.42 3.97
 11 12 -37 -0.29 4.91
 -12 -11 37 -1.29 4.18
 12 -11 37 -5.07 3.8
 -11 -12 37 1.3 4.42
 0 -13 37 -4.14 4.34
 -13 0 -37 4.73 3.22
 13 0 -37 6.21 4.06
 2 13 -37 18.75 4.83
 13 -2 -37 17.85 4.45
 -13 2 -37 21.41 3.37
 2 -13 37 23.86 4.91
 -13 -2 -37 21.17 3.39
 -2 -13 37 14.23 4.67
 4 -13 37 7.93 4.39
 4 13 -37 14.29 4.82
 13 -4 -37 2.17 4.09
 13 4 -37 9.33 4.23
 -4 -13 37 7.88 4.26
 -13 -4 -37 7.1 3.18
 -13 6 -37 4.22 3.12
 6 13 -37 5.16 4.51
 -13 -6 37 -0.82 4.59
 6 -13 37 -3.75 4.28
 13 6 -37 1.64 4.4
 -6 -13 37 -6.58 4.78
 8 13 -37 5.74 4.87
 13 -8 -37 0.67 4.33
 -13 -8 37 1.41 4.46
 8 -13 37 4.07 4.37
 13 8 -37 4.8 4.27
 -8 -13 37 2.35 4.2
 10 13 -37 1.3 4.94
 10 -13 37 8.74 4.12
 -13 -10 37 4.01 4
 13 -10 -37 1.11 4.49
 -10 -13 37 -2.43 4.41
 13 10 -37 4.99 4.71
 12 -13 37 2.55 3.93
 12 13 -37 9.36 4.71
 -13 -12 37 6.32 4.55
 -12 -13 37 4.65 4.45
 13 -12 37 0.29 3.77
 13 12 -37 10.24 4.7
 1 -14 37 4.72 4.82
 14 -1 -37 5.08 4.23
 -14 1 -37 2.37 3.1
 -14 -1 -37 -0.31 3.17
 -1 -14 37 -7.52 4.54
 14 1 -37 3.77 4.08
 14 -3 -37 3.34 4.19
 3 -14 37 5.82 4.6
 -14 3 -37 5.38 3.05
 14 3 -37 -0.01 3.79
 -3 -14 37 0.59 4.78
 -14 -3 -37 6.92 3.1
 -14 5 -37 2.2 2.95
 5 14 -37 10.53 5.11
 14 -5 -37 -2.79 4
 5 -14 37 6.36 4.53
 -5 -14 37 2.07 4.77
 14 5 -37 -3.63 4.42
 -14 -5 -37 3.62 3.08
 7 14 -37 0.02 4.81
 7 -14 37 6.46 4.48
 -14 -7 37 -4.94 3.82
 14 -7 -37 -6.68 4.19
 -7 -14 37 4.61 4.3
 14 7 -37 -1.55 4.26
 9 14 -37 3.45 4.73
 14 -9 -37 4.75 4.48
 9 -14 37 2.75 4.19
 -14 -9 37 -4.56 4.23
 -9 -14 37 1.32 4.15
 14 9 -37 -1.77 4.46
 -14 -11 37 1.28 4.07
 11 -14 37 4.35 4.13
 11 14 -37 -1.91 5
 14 11 -37 7.57 4.76
 -11 -14 37 6.08 4.35
 -14 -13 37 4.13 4.15
 13 -14 37 0.11 3.81
 -13 -14 37 1.38 4.19
 14 13 -37 -0.49 5.45
 14 -13 37 -3.3 3.62
 0 -15 37 -1.5 4.76
 15 0 -37 2.78 4.06
 -15 0 -37 7.64 2.94
 15 -2 -37 3.7 4.35
 2 -15 37 -7.43 4.53
 -15 2 -37 -3.08 3.06
 -2 -15 37 -4.2 4.83
 -15 -2 -37 0.12 3.19
 15 2 -37 -6.25 4.08
 -15 4 -37 1.43 2.82
 4 -15 37 -2.88 4.76
 15 -4 -37 -2.67 4.07
 -4 -15 37 -1.36 4.36
 -15 -4 -37 1.83 3.12
 15 4 -37 0.56 4.1
 15 -6 -37 -0.23 3.98
 6 -15 37 1.3 4.63
 15 6 -37 -4.56 4.6
 -15 -6 -37 -1.57 3.04
 -6 -15 37 0.49 4.86
 8 -15 37 4.98 4.42
 -15 -8 37 1.43 4.54
 15 -8 -37 -2.8 4.26
 -8 -15 37 -8.37 4.08
 15 8 -37 -3.84 4.21
 15 -10 -37 2.37 4.47
 10 -15 37 -4.94 4.1
 -15 -10 37 2.96 3.98
 -10 -15 37 -4.66 4.03
 15 10 -37 2.75 4.86
 -15 -12 37 4.09 3.94
 12 -15 37 1.48 4.13
 15 -12 -37 -3.85 4.58
 -12 -15 37 -0.44 4.03
 15 12 -37 5.34 4.91
 14 -15 37 7.33 3.83
 -15 -14 37 -3.58 4
 -14 -15 37 -3.03 4.06
 15 14 -37 -10.91 5.05
 -16 1 -37 -0.88 2.79
 1 -16 37 -0.15 4.94
 16 -1 -37 3.54 4.57
 16 1 -37 -3.59 4.05
 -16 -1 -37 3.19 3.05
 -1 -16 37 0.32 4.78
 3 -16 37 3.53 4.84
 16 -3 -37 -3.46 4.21
 -3 -16 37 6.4 5.08
 16 3 -37 1.87 4.23
 -16 -3 -37 3.71 3.22
 5 -16 37 -1.85 4.73
 16 -5 -37 8.56 4.25
 -16 -5 -37 0.3 3.13
 -5 -16 37 -0.78 4.68
 16 5 -37 4.67 4.4
 -16 -7 37 2.32 3.96
 16 -7 -37 6.66 4.35
 7 -16 37 1.95 4.48
 -7 -16 37 5.74 5.06
 16 7 -37 3.37 4.4
 9 -16 37 1.04 4.38
 16 -9 -37 -3.27 4.55
 -16 -9 37 -1.03 4.53
 -9 -16 37 -0.7 4.45
 16 9 -37 0.3 4.64
 11 -16 37 7.57 4.25
 16 -11 -37 -4.28 4.28
 -16 -11 37 -3.96 3.97
 -11 -16 37 -7.54 4.23
 16 11 -37 2.51 4.61
 16 -13 -37 -0.89 4.13
 13 -16 37 -1.83 4
 -16 -13 37 7.81 4.1
 16 13 -37 6.09 5.17
 -13 -16 37 7.11 4.53
 -16 -15 37 1.77 4.79
 -15 -16 37 -0.32 4.59
 17 0 -37 27.91 4.58
 0 -17 37 25.62 5.09
 17 -2 -37 11.6 4.36
 -17 -2 -37 9.32 3.21
 17 2 -37 2.62 3.89
 -2 -17 37 6.67 4.73
 17 -4 -37 4.67 4.06
 4 -17 37 11.18 5
 17 4 -37 5.03 4.35
 -4 -17 37 10.18 5.12
 -17 -4 -37 5.79 3.15
 6 -17 37 5.62 4.78
 17 -6 -37 4.28 4.22
 -17 -6 -37 7.99 3.15
 17 6 -37 11.06 4.38
 -6 -17 37 -2.83 4.47
 -17 -8 37 -0.82 4.25
 17 -8 -37 -5.18 4.53
 8 -17 37 -3.91 4.56
 17 8 -37 0.01 4.36
 -8 -17 37 3.91 4.93
 10 -17 37 4.18 4.39
 -17 -10 37 2.43 4.61
 17 -10 -37 -7.13 4.21
 17 10 -37 3.81 4.85
 -10 -17 37 -2.51 4.83
 12 -17 37 10.76 4.31
 -17 -12 37 7.64 4.44
 -12 -17 37 5.69 4.68
 17 12 -37 -2.34 5.44
 17 -14 -37 3.96 4.17
 -17 -14 37 -1.28 4.81
 14 -17 37 -5.5 3.86
 -14 -17 37 -0.39 4.32
 -17 -16 37 5.32 4.01
 -16 -17 37 1.74 4.02
 18 -1 -37 4.78 4.45
 1 -18 37 -1.89 5.21
 18 1 -37 8.4 4.36
 18 -3 -37 -1.55 4.4
 3 -18 37 8.97 5.1
 18 3 -37 2.78 4.1
 -18 -3 -37 2.51 3.02
 -3 -18 37 6.82 4.75
 5 -18 37 -2.14 5.14
 18 -5 -37 0.51 4.32
 -18 -5 -37 3.07 3.07
 18 5 -37 5.27 4.42
 -5 -18 37 8.32 5.35
 18 -7 -37 4.71 4.44
 7 -18 37 0.9 4.67
 -7 -18 37 0.88 4.55
 18 7 -37 1.73 4.67
 -18 -9 37 4.87 4.48
 9 -18 37 -4.94 4.61
 18 -9 -37 -6.26 4.16
 18 9 -37 -1.3 4.4
 -9 -18 37 -3.15 4.22
 18 -11 -37 7.01 4.67
 11 -18 37 -9.56 4.29
 -18 -11 37 -1.22 4.84
 18 11 -37 6.84 4.72
 -11 -18 37 -3.25 4.15
 18 -13 -37 5.36 4.56
 13 -18 37 10.2 4.15
 -18 -13 37 7.98 4.76
 18 13 -37 7.14 4.99
 -13 -18 37 2.7 4.05
 -18 -15 37 3.39 4.09
 -15 -18 37 13.4 4.69
 -18 -17 37 0.81 4.59
 -17 -18 37 3.59 4.25
 0 -19 37 8.43 5.43
 19 0 -37 9.15 4.39
 19 -2 -37 23.38 4.62
 2 -19 37 25.27 5.47
 19 2 -37 13.21 4.35
 -2 -19 37 19.14 5.27
 4 -19 37 10.12 5.21
 19 -4 -37 2.61 4.48
 19 4 -37 2.57 4.24
 -4 -19 37 7.5 4.86
 6 -19 37 1.82 5.15
 19 -6 -37 14.66 4.52
 19 6 -37 8.95 4.44
 -6 -19 37 7.73 5.16
 8 -19 37 1.92 4.87
 -19 -8 37 5.4 3.99
 19 -8 -37 0.16 4.19
 -8 -19 37 5.93 5.13
 19 8 -37 11.58 4.75
 -19 -10 37 -3.42 4.38
 10 -19 37 -0.31 4.53
 19 -10 -37 5.02 4.6
 19 10 -37 9.77 5.12
 -10 -19 37 7.19 4.99
 12 -19 37 -3.81 4.27
 19 -12 -37 -4.84 4.63
 -19 -12 37 -6.92 4.39
 -12 -19 37 3.6 4.85
 19 12 -37 4.86 5.35
 -19 -14 37 0.9 4.02
 14 -19 37 3.72 4.25
 19 -14 -37 -9.93 4.58
 -14 -19 37 -2.06 4.51
 -19 -16 37 -2.54 4.77
 19 -16 -37 -7.74 4.22
 -16 -19 37 6.9 4.01
 20 -1 -37 0.14 4.51
 1 -20 37 8.25 5.52
 -1 -20 37 -2.14 5.37
 20 1 -37 10.14 4.42
 20 -3 -37 1.95 4.59
 3 -20 37 9.55 5.34
 -3 -20 37 5.89 4.97
 20 3 -37 -1.3 4.38
 5 -20 37 3.82 5.09
 20 -5 -37 -0.08 4.41
 -5 -20 37 8.05 5.35
 20 5 -37 2.31 4.32
 7 -20 37 4.43 4.86
 20 -7 -37 2.53 4.15
 -20 -7 -37 2.38 3.09
 -7 -20 37 4.15 4.64
 9 -20 37 13.12 4.79
 -20 -9 37 1.97 4
 20 -9 -37 6.17 4.62
 20 9 -37 8.71 4.6
 -9 -20 37 2.16 4.41
 20 -11 -37 9.47 4.34
 11 -20 37 4.07 4.55
 -20 -11 37 0.73 4.11
 -11 -20 37 0.76 4.19
 -20 -13 37 0.18 4.15
 20 -13 -37 1.41 4.51
 13 -20 37 9.49 4.41
 -13 -20 37 0.41 4.21
 0 -21 37 -0.28 5.4
 21 0 -37 2.58 4.35
 2 -21 37 -0.07 5.42
 21 -2 -37 -1.9 4.4
 -2 -21 37 -7.16 5.27
 21 2 -37 1.72 4.44
 4 -21 37 -2.79 5.18
 21 -4 -37 0.93 4.37
 21 4 -37 6.15 4.48
 -4 -21 37 -2.99 5
 6 -21 37 -4.05 4.98
 21 -6 -37 0.13 4.19
 21 6 -37 -3.59 4.44
 -6 -21 37 -1.27 4.85
 21 -8 -37 0.08 4.53
 8 -21 37 11.5 5.02
 21 8 -37 4.71 4.51
 -8 -21 37 -0.36 5.04
 21 -10 -37 0.01 4.3
 10 -21 37 7.03 4.75
 -21 -10 37 -5.13 4.59
 -10 -21 37 0.61 4.88
 21 -12 -37 3.37 4.23
 12 -21 37 3.18 4.62
 -21 -12 37 3.86 4.7
 -12 -21 37 -2.99 4.68
 21 12 -37 0.11 5.27
 1 -22 37 -4.57 5.36
 22 -1 -37 3.64 4.28
 -1 -22 37 2.63 5.29
 22 1 -37 -4.75 4.36
 22 -3 -37 3.11 4.35
 3 -22 37 -5.6 5.29
 -3 -22 37 5.6 5.01
 22 3 -37 3.83 4.54
 5 -22 37 3.35 5.08
 22 -5 -37 5.26 4.26
 7 -22 37 -5.42 5.06
 22 -7 -37 -6.82 4.52
 -7 -22 37 -8.13 5.32
 22 7 -37 2.85 4.77
 22 -9 -37 3.26 4.19
 22 9 -37 1.73 5.08
 -9 -22 37 8.62 5.07
 -22 -11 37 -3.84 4.69
 11 -22 37 10.76 4.75
 22 -11 -37 0.1 4.29
 22 11 -37 4.31 5.15
 -11 -22 37 7.15 5.02
 0 -23 37 8.9 5.22
 23 0 -37 16.68 4.45
 23 -2 -37 1.67 4.21
 2 -23 37 10.27 5.31
 -2 -23 37 2.67 5.19
 23 2 -37 13.38 4.61
 23 -4 -37 10.62 4.33
 4 -23 37 1.02 5.12
 23 4 -37 4.85 4.67
 -4 -23 37 7.84 5.31
 6 -23 37 0.2 5.18
 23 -6 -37 -3.4 4.52
 -6 -23 37 -0.44 5.22
 23 6 -37 9.21 4.81
 8 -23 37 -2.78 4.94
 23 -8 -37 2.61 4.26
 -8 -23 37 3.44 4.62
 23 8 -37 1.11 4.83
 24 -1 -37 -4.66 4.26
 1 -24 37 0.08 5.2
 24 1 -37 11.61 4.48
 -1 -24 37 3.73 5.54
 24 -3 -37 3.7 4.24
 3 -24 37 -2.91 5.14
 -3 -24 37 -2.8 5.26
 24 3 -37 1.51 4.58
 5 -24 37 -5.38 5.26
 24 -5 -37 5.36 4.54
 24 5 -37 4.93 4.68
 -5 -24 37 2.14 5.29
 0 0 -38 -3.31 3.62
 1 -1 -38 -1.28 3.85
 -1 1 -38 -1.35 3.25
 -1 -1 -38 4.23 3.33
 1 1 -38 -1.6 3.65
 0 2 -38 50.3 4.39
 2 0 -38 61.81 4.79
 0 -2 -38 63.56 4.71
 -2 -2 -38 -3.93 3.26
 2 -2 -38 0.59 3.69
 2 2 -38 -3.85 3.76
 -1 -3 -38 1.74 3.66
 3 -1 -38 2.06 3.58
 1 3 -38 -0.58 3.5
 1 -3 -38 3.1 3.89
 3 1 -38 6.79 3.95
 3 -3 -38 1.84 4.03
 3 3 -38 6.47 3.68
 4 0 -38 0.34 3.62
 0 -4 -38 6.38 3.8
 0 4 -38 4.56 3.51
 2 4 -38 18.96 3.56
 -2 -4 -38 21.23 3.84
 4 -2 -38 27.15 4.16
 2 -4 -38 19.77 4.21
 4 2 -38 21.76 4.13
 4 -4 -38 -7.39 4.22
 4 4 -38 1.45 3.66
 -1 -5 -38 2.42 3.82
 1 5 -38 0.54 3.66
 5 -1 -38 4.31 3.77
 1 -5 -38 7.29 3.96
 5 1 -38 2.75 3.75
 3 5 -38 4.87 3.6
 5 -3 -38 9.97 4.12
 -3 -5 -38 7.7 3.5
 3 -5 -38 2.29 4.06
 5 3 -38 7.87 3.88
 5 -5 -38 3.84 4.01
 5 5 -38 -1.35 3.67
 0 -6 -38 38.11 4.31
 6 0 -38 28.72 4
 -6 0 -38 34.37 3.49
 2 6 -38 1.85 3.73
 6 -2 -38 -0.5 3.82
 -2 -6 38 5.38 4.55
 6 2 -38 1.16 3.93
 2 -6 -38 -3.34 3.89
 6 -4 -38 8.52 4.01
 4 6 -38 14.03 3.96
 6 4 -38 11.45 3.91
 -4 -6 38 19.84 4.1
 4 -6 -38 6.31 3.96
 6 6 -38 -4.89 3.75
 6 -6 -38 -0.31 4.35
 -6 -6 38 -2.43 4.11
 -7 1 -38 -3.13 3.24
 1 7 -38 3.62 3.9
 1 -7 38 3.45 4.19
 7 -1 -38 5.25 3.68
 -1 -7 38 3.4 4.35
 7 1 -38 6.45 3.74
 -7 -1 -38 3.53 3.14
 3 7 -38 0.22 4.36
 7 -3 -38 2.13 3.71
 3 -7 38 0.87 4.38
 7 3 -38 5.8 3.89
 -7 -3 -38 0.13 3.01
 -3 -7 38 -2.27 4.13
 5 7 -38 -0.11 4.37
 7 -5 -38 6.32 4.29
 -5 -7 38 -1.75 4.4
 5 -7 -38 6.97 4.52
 7 5 -38 -3.07 4.07
 -7 -7 38 -0.03 4.22
 7 7 -38 1.1 4.35
 7 -7 -38 -2.2 3.97
 8 0 -38 8.91 3.68
 -8 0 -38 2.07 3.32
 0 -8 38 2.6 4.38
 8 -2 -38 4.76 3.92
 2 -8 38 -1.37 4.22
 2 8 -38 -5.21 4.29
 -2 -8 38 -0.13 4.23
 8 2 -38 1.6 3.58
 -8 -2 -38 3.41 3.22
 8 -4 -38 2.36 4.53
 4 8 -38 -0.7 3.96
 -8 -4 -38 3.33 3.09
 -4 -8 38 5.39 4.62
 8 4 -38 -1.54 3.84
 6 8 -38 -1.4 4.02
 8 -6 -38 1.01 4.13
 -8 -6 38 -5.24 3.98
 -6 -8 38 -0.69 4.53
 6 -8 -38 -2.33 4.05
 8 6 -38 -3.34 4.1
 8 8 -38 -7.23 4.47
 -8 -8 38 1.13 4.19
 8 -8 -38 -3.91 4.03
 9 -1 -38 7.68 3.92
 1 9 -38 -6.71 4.21
 -9 1 -38 -0.62 3.37
 1 -9 38 1.29 4.54
 -9 -1 -38 3.56 3.33
 -1 -9 38 1.94 4.33
 9 1 -38 6.86 3.96
 3 -9 38 5.33 4.37
 9 -3 -38 7.99 4.28
 3 9 -38 0.58 4.03
 -9 -3 -38 11.08 3.35
 9 3 -38 6.1 3.63
 -3 -9 38 10.44 4.7
 5 9 -38 6.94 4.2
 9 -5 -38 7.57 4.11
 5 -9 38 1.96 4.15
 -5 -9 38 -1.09 4.53
 -9 -5 -38 5.11 3.24
 9 5 -38 3.92 3.78
 -9 -7 38 -1.04 3.73
 7 -9 38 -8.91 4.07
 9 -7 -38 -4.5 4.51
 7 9 -38 -2.41 4.17
 -7 -9 38 0.27 4.48
 9 7 -38 -2.15 4.15
 9 -9 -38 4.35 4.15
 9 9 -38 4.7 4.03
 -9 -9 38 -2.73 4.07
 10 0 -38 2.11 3.92
 0 -10 38 -7.03 4.25
 -10 0 -38 -0.36 3.28
 -10 2 -38 -0.97 3.16
 2 10 -38 0.02 4.14
 2 -10 38 -3.51 4.38
 10 -2 -38 3.92 4.46
 -2 -10 38 1.17 4.61
 -10 -2 -38 -1.91 3.24
 10 2 -38 0.68 3.68
 10 -4 -38 7.5 4.13
 4 -10 38 4.6 4.18
 4 10 -38 2.02 4.49
 -10 4 -38 -5 3.32
 -4 -10 38 1.68 4.58
 -10 -4 -38 -2.06 3.26
 10 4 -38 1.03 3.87
 -10 -6 38 -6.29 4.03
 6 10 -38 4.22 4.4
 6 -10 38 2.57 4.05
 10 -6 -38 -1.67 4.38
 10 6 -38 -3.79 3.88
 -6 -10 38 8.33 4.51
 8 10 -38 3.5 4.53
 10 -8 -38 -0.68 4.55
 -10 -8 38 -4.96 4.2
 8 -10 38 1.69 3.95
 -8 -10 38 -2.59 3.99
 10 8 -38 2.23 4.08
 10 10 -38 3.24 4.69
 -10 -10 38 -0.76 4.5
 11 -1 -38 6.49 4.15
 -11 1 -38 -0.64 3.31
 1 -11 38 0.98 4.32
 1 11 -38 -1.26 4.15
 11 1 -38 2.9 4.21
 -11 -1 -38 1.76 3.23
 -1 -11 38 -4.5 4.51
 -11 3 -38 4.79 3.44
 11 -3 -38 9.14 3.9
 3 11 -38 5.35 4.59
 3 -11 38 7.96 4.33
 -3 -11 38 2.58 4.81
 11 3 -38 5.94 3.9
 -11 -3 -38 -0.81 3.26
 5 11 -38 3.86 4.06
 -11 5 -38 -2.39 3.44
 11 -5 -38 -1.4 4.44
 5 -11 38 9.86 4.24
 -11 -5 -38 1.76 3.28
 -5 -11 38 2.86 4.66
 11 5 -38 2.41 3.8
 -11 -7 38 -0.43 4.66
 11 -7 -38 0.48 4.71
 7 -11 38 1.95 4.11
 7 11 -38 7.27 4.28
 -7 -11 38 -0.2 4.17
 11 7 -38 3.1 4.24
 9 -11 38 2.32 4.08
 11 -9 -38 2.91 4.26
 -11 -9 38 -1.8 4.24
 9 11 -38 3.02 4.3
 -9 -11 38 7.72 4.74
 11 9 -38 2.14 4.9
 11 11 -38 -3.82 4.36
 11 -11 38 -1.09 3.9
 12 0 -38 8.53 4.34
 -12 0 -38 6.36 3.41
 0 -12 38 9.82 4.44
 12 -2 -38 -3.38 3.88
 -12 2 -38 2.06 3.17
 2 12 -38 0.44 4.34
 2 -12 38 2.96 4.72
 -12 -2 -38 -4 3.22
 -2 -12 38 -3.53 4.7
 12 2 -38 1.89 4.19
 4 -12 38 -0.7 4.55
 4 12 -38 9.69 4.78
 12 -4 -38 1.45 4.4
 -12 4 -38 -2.21 3.38
 12 4 -38 -3.95 3.82
 -4 -12 38 -1.65 4.5
 12 -6 -38 -2 4.57
 6 -12 38 5.79 4.24
 6 12 -38 -0.89 4.58
 -12 -6 38 -4.13 4.27
 12 6 -38 5.87 4.11
 -6 -12 38 -1.96 4.19
 8 -12 38 1.23 4.11
 -12 -8 38 -3.97 3.93
 12 -8 -38 -8.28 4.55
 8 12 -38 10.78 4.56
 12 8 -38 1.55 4.63
 -8 -12 38 0.16 4.75
 -12 -10 38 -1.73 4.44
 12 -10 -38 -0.67 4.03
 10 12 -38 1.34 4.85
 10 -12 38 0.56 3.99
 12 10 -38 -4.72 4.34
 -10 -12 38 -0.97 4.4
 12 -12 38 -0.69 3.85
 -12 -12 38 -1.49 3.95
 12 12 -38 4.26 5.07
 1 13 -38 9.38 4.6
 1 -13 38 3.19 4.65
 13 -1 -38 4.96 3.93
 -13 1 -38 -1.28 3.1
 -13 -1 -38 0.39 3.24
 -1 -13 38 -2.59 4.36
 13 1 -38 1.44 4.24
 3 -13 38 -0.42 4.42
 13 -3 -38 8.37 4.27
 -13 3 -38 1.47 3.37
 3 13 -38 5.04 4.92
 13 3 -38 -3.87 4.07
 -3 -13 38 -6.29 4.36
 -13 -3 -38 -0.25 3.17
 13 -5 -38 -4.36 4.58
 5 -13 38 9.14 4.51
 -13 5 -38 4.42 3.25
 5 13 -38 2.39 4.54
 -13 -5 -38 1.01 3.14
 13 5 -38 2.35 3.93
 7 13 -38 -0.45 5.2
 7 -13 38 4.58 4.27
 -13 -7 38 -0.35 4.01
 13 -7 -38 4.59 4.62
 13 7 -38 -5.27 4.37
 -7 -13 38 -0.16 4.51
 9 13 -38 1.38 5.08
 9 -13 38 3.03 4.06
 -13 -9 38 7.57 4.51
 13 -9 -38 -1.18 4.39
 -9 -13 38 -0.79 4.44
 13 9 -38 4.59 4.27
 11 13 -38 5.62 5.23
 13 -11 -38 -0.57 4.42
 11 -13 38 4.91 3.99
 -13 -11 38 -1.68 4.13
 -11 -13 38 -5.11 4
 13 11 -38 -4.58 4.75
 13 13 -38 1.82 4.75
 -13 -13 38 2.26 4.1
 13 -13 38 -4.83 3.75
 0 -14 38 -0.79 4.85
 -14 0 -38 -0.75 3.13
 14 0 -38 8.66 4.13
 -14 2 -38 1.97 3.08
 14 -2 -38 0.8 4.21
 2 -14 38 6.99 4.66
 -2 -14 38 1.62 4.82
 14 2 -38 5.51 4.04
 -14 -2 -38 0.03 3.23
 -14 4 -38 -3.05 3.13
 14 -4 -38 -4.52 4.4
 4 -14 38 1.09 4.64
 4 14 -38 2.02 5.06
 14 4 -38 5.71 4.12
 -4 -14 38 -3.59 4.94
 -14 -4 -38 4.81 3.15
 6 14 -38 1.8 4.74
 14 -6 -38 2.15 4.63
 -14 6 -38 0.54 2.96
 6 -14 38 -4.64 4.42
 14 6 -38 8.06 4.31
 -6 -14 38 6.87 4.39
 -14 -6 -38 -0.59 3.18
 14 -8 -38 -3.38 4.44
 8 -14 38 -2.87 4.31
 -14 -8 38 4.63 4.16
 8 14 -38 -0.49 4.93
 -8 -14 38 11.67 4.83
 14 8 -38 0.21 4.64
 10 -14 38 3.02 4.1
 10 14 -38 1.18 5.09
 -14 -10 38 -0.53 4.45
 14 -10 -38 -1.69 4.17
 14 10 -38 -1.09 4.39
 -10 -14 38 -1.83 4.39
 12 14 -38 3.99 5.06
 14 -12 -38 -2.39 4.07
 12 -14 38 7.22 3.93
 -14 -12 38 1.93 4.08
 -12 -14 38 2.57 4.37
 14 12 -38 11.24 4.8
 -14 -14 38 -7.23 4.56
 14 -14 38 0.87 3.75
 14 14 -38 11.15 5.34
 15 -1 -38 7.06 4.21
 1 -15 38 -6.21 4.5
 -1 -15 38 1.01 4.59
 -15 -1 -38 6.22 3.31
 15 1 -38 -3.22 3.96
 15 -3 -38 -3.98 4.42
 3 -15 38 5.56 4.87
 -15 3 -38 -0.11 3.03
 -3 -15 38 0.71 4.45
 15 3 -38 -0.26 4.13
 -15 -3 -38 0.78 3.21
 -15 5 -38 -0.18 2.77
 5 -15 38 -4.38 4.47
 15 -5 -38 6.43 4.59
 15 5 -38 -2.54 4.23
 -15 -5 -38 0.43 3.18
 -5 -15 38 -2.99 4.52
 15 -7 -38 -4.82 4.6
 -15 -7 38 -1.92 3.9
 7 -15 38 5.41 4.51
 -7 -15 38 3.18 4.6
 15 7 -38 3.05 4.36
 15 -9 -38 4.02 4.36
 9 -15 38 -2.77 4.34
 -15 -9 38 -1.7 4.46
 -9 -15 38 -0.4 4.82
 15 9 -38 7.38 4.34
 15 -11 -38 5.89 4.6
 11 -15 38 -4.56 4.18
 15 11 -38 6.21 5.07
 -11 -15 38 2.49 4.82
 13 -15 38 4.52 3.92
 15 -13 -38 -1.28 4.48
 -15 -13 38 -0.56 4.42
 15 13 -38 0.76 5.48
 -13 -15 38 -2.65 4.7
 -15 -15 38 -6.35 4.46
 0 -16 38 7.26 5.21
 16 0 -38 6.52 4.13
 -16 0 -38 0.21 2.97
 16 -2 -38 10.31 4.41
 -16 2 -38 3.13 2.91
 -2 -16 38 6.9 5.09
 16 2 -38 5.81 3.99
 -16 4 -38 5.53 2.75
 4 -16 38 -3.16 4.63
 16 -4 -38 1.68 4.4
 16 4 -38 1.22 4.39
 -16 -4 -38 4.3 3.06
 -4 -16 38 -0.72 4.85
 16 -6 -38 2.99 4.54
 6 -16 38 -2.87 4.5
 16 6 -38 -3.81 4.19
 -16 -6 -38 0.05 3.17
 -6 -16 38 -4.93 4.36
 -16 -8 38 -6.95 3.88
 8 -16 38 6.5 4.41
 16 -8 -38 -4.98 4.36
 16 8 -38 5.55 4.67
 -8 -16 38 -4.47 4.41
 -16 -10 38 -4.2 4.64
 16 -10 -38 -0.07 4.71
 10 -16 38 -1.79 4.35
 -10 -16 38 1 4.68
 16 10 -38 3.11 4.77
 -16 -12 38 0.92 4.56
 12 -16 38 -1.91 4.1
 16 -12 -38 1.77 4.21
 -12 -16 38 -1.01 4.45
 16 -14 -38 0.23 4.31
 -16 -14 38 8.61 4.67
 14 -16 38 -5.81 3.76
 -14 -16 38 -6.53 4.19
 -16 -16 38 -0.15 3.95
 17 -1 -38 -0.29 4.29
 1 -17 38 4.68 4.87
 -17 1 -38 1.42 2.82
 17 1 -38 -0.98 3.99
 -1 -17 38 3.55 4.72
 17 -3 -38 1.19 4.39
 3 -17 38 -11.36 4.96
 17 3 -38 -2.54 4.12
 -3 -17 38 -6.47 4.82
 5 -17 38 -9.24 4.74
 17 5 -38 0.59 4.78
 -5 -17 38 0.17 4.82
 -17 -5 -38 5.48 3.14
 17 -7 -38 3.16 4.23
 7 -17 38 -3.74 4.58
 17 7 -38 5.16 4.35
 -7 -17 38 0.09 4.67
 9 -17 38 4.61 4.44
 -17 -9 38 2.64 4.29
 17 -9 -38 3.55 4.31
 17 9 -38 0.23 4.29
 -9 -17 38 -1.85 4.15
 -17 -11 38 -1.4 4.65
 17 -11 -38 3.26 4.27
 11 -17 38 -1.69 4.27
 -11 -17 38 0.78 4.04
 17 11 -38 8.86 4.86
 13 -17 38 2.66 4.1
 -17 -13 38 -2.76 4.51
 17 -13 -38 -3.99 4.17
 17 13 -38 3.63 5.21
 -13 -17 38 -5.5 3.97
 -17 -15 38 0.43 3.99
 -15 -17 38 2.81 4.49
 -17 -17 38 1.51 4.45
 0 -18 38 20.16 5.21
 18 0 -38 13.41 4.37
 2 -18 38 9.66 4.85
 18 -2 -38 0.91 4.42
 18 2 -38 13.9 4.1
 -18 -2 -38 5.94 2.96
 -2 -18 38 6.64 4.72
 18 -4 -38 8.7 4.51
 4 -18 38 1.16 5.01
 -18 -4 -38 11.04 3.29
 -4 -18 38 5.09 4.88
 18 4 -38 13.03 4.35
 18 -6 -38 1.38 4.22
 6 -18 38 0.17 4.83
 18 6 -38 6.67 4.55
 -18 -6 -38 -2.51 3.2
 -18 -8 38 2.52 3.92
 18 -8 -38 2.29 4.23
 8 -18 38 -4.47 4.62
 -8 -18 38 2.21 4.99
 18 8 -38 3.63 4.75
 18 -10 -38 -0.41 4.43
 -18 -10 38 -0.2 4.32
 10 -18 38 -5.67 4.38
 18 10 -38 -10.92 4.7
 -10 -18 38 0.28 4.85
 12 -18 38 8.01 4.16
 18 -12 -38 -6.28 4.53
 -18 -12 38 7.21 4.4
 -12 -18 38 -1 4.75
 18 12 -38 -1.62 5.11
 18 -14 -38 0.66 4.38
 -18 -14 38 0.41 3.97
 14 -18 38 0.74 4.09
 -14 -18 38 0.88 4.58
 -18 -16 38 -2.84 4.71
 -16 -18 38 0.44 3.91
 19 -1 -38 2.4 4.43
 1 -19 38 8.05 5.31
 -1 -19 38 2.14 5.18
 19 1 -38 -1.71 4.2
 3 -19 38 -1.65 5
 19 -3 -38 -4.47 4.37
 -3 -19 38 2.37 4.77
 19 3 -38 -0.61 4.24
 5 -19 38 3.62 5.09
 19 -5 -38 -0.42 4.14
 19 5 -38 2.56 4.28
 -5 -19 38 10.38 5.41
 7 -19 38 2.28 4.73
 19 -7 -38 0.59 4.09
 -19 -7 -38 7.32 3.2
 19 7 -38 -1.02 4.38
 -7 -19 38 6.18 4.52
 9 -19 38 0.46 4.6
 19 -9 -38 -0.02 4.45
 -19 -9 38 7.15 3.9
 -9 -19 38 8.08 4.37
 19 9 -38 4.56 4.72
 11 -19 38 3.24 4.42
 19 -11 -38 -3.86 4.58
 -19 -11 38 -0.45 4.01
 -11 -19 38 5.51 4.23
 19 11 -38 6.87 4.89
 19 -13 -38 0.65 4.67
 -19 -13 38 6.38 4.04
 13 -19 38 -4.08 4.21
 -13 -19 38 2.1 3.99
 19 13 -38 -4.58 5.16
 -19 -15 38 -3.85 4.72
 19 -15 -38 0.54 4.41
 -15 -19 38 -1.06 4.31
 20 0 -38 -0.36 4.19
 0 -20 38 1.54 5.36
 2 -20 38 -3.52 5.19
 -2 -20 38 -3.96 5.09
 20 2 -38 0.14 4.39
 20 -4 -38 5.81 4.25
 4 -20 38 2.94 5.12
 -4 -20 38 -5.55 4.95
 20 4 -38 2.64 4.48
 6 -20 38 7.67 5.11
 20 -6 -38 0.94 4.14
 20 6 -38 8.3 4.41
 -6 -20 38 6.07 4.93
 20 -8 -38 -3.36 4.48
 8 -20 38 1.89 4.94
 -8 -20 38 1.8 5.08
 20 8 -38 3.42 4.46
 10 -20 38 -9.99 4.58
 20 -10 -38 -2.4 4.34
 -20 -10 38 0.12 4.14
 -10 -20 38 7.96 5.03
 -20 -12 38 -6.1 4.21
 12 -20 38 1.59 4.38
 20 12 -38 4.43 4.96
 -12 -20 38 -7.4 4.8
 20 -14 -38 -5.53 4.55
 -20 -14 38 -4.31 4.72
 -14 -20 38 -7.09 4.42
 1 -21 38 -1.77 5.37
 21 -1 -38 -4.75 4.16
 21 1 -38 -4.23 4.37
 -1 -21 38 1.87 5.32
 21 -3 -38 -1.04 4.35
 3 -21 38 -1.58 5.19
 -3 -21 38 8.03 4.96
 21 3 -38 -2.06 4.5
 5 -21 38 4.55 5.08
 21 -5 -38 9.22 4.22
 -5 -21 38 -2.62 5.24
 21 5 -38 1.74 4.49
 21 -7 -38 7.74 4.49
 7 -21 38 15.04 5.15
 21 7 -38 -2.65 4.61
 -7 -21 38 0.91 4.93
 21 -9 -38 -5.33 4.18
 -21 -9 38 -0.06 4.52
 9 -21 38 11.53 5.03
 21 9 -38 0.66 4.93
 -9 -21 38 -0.25 4.39
 21 -11 -38 3.07 4.28
 -21 -11 38 3.97 4.85
 11 -21 38 2.05 4.54
 21 11 -38 -1.38 5.25
 -11 -21 38 7.46 4.27
 22 0 -38 4.08 4.31
 0 -22 38 3.37 5.28
 22 -2 -38 -1.19 4.16
 2 -22 38 -0.29 5.27
 22 2 -38 3.39 4.55
 -2 -22 38 -5.56 5
 4 -22 38 -2.9 5.1
 22 -4 -38 8.07 4.32
 22 4 -38 4.04 4.67
 -4 -22 38 -2.77 5.48
 6 -22 38 6.75 5.19
 -6 -22 38 6.8 4.76
 8 -22 38 -2.91 4.93
 22 -8 -38 0.71 4.18
 22 8 -38 4.07 4.85
 -8 -22 38 1.29 4.7
 10 -22 38 5.54 4.83
 22 -10 -38 6.26 4.28
 -10 -22 38 10.61 4.74
 22 10 -38 11.42 4.82
 1 -23 38 -7.13 5.13
 23 -1 -38 -0.71 4.17
 23 1 -38 -4.32 4.44
 -1 -23 38 2.83 5.11
 23 -3 -38 8.85 4.22
 3 -23 38 0.01 5.1
 23 3 -38 6.04 4.67
 -3 -23 38 -1.47 5.53
 23 -5 -38 8.97 4.58
 23 5 -38 5.22 4.62
 -5 -23 38 3.18 4.81
 7 -23 38 -1.99 5.04
 23 -7 -38 -1.18 4.25
 -7 -23 38 4.39 5.05
 23 7 -38 3.92 4.53
 0 -24 38 2.42 5.51
 24 0 -38 -2.44 4.29
 2 -24 38 -1.64 5.33
 24 -2 -38 4.61 4.17
 24 2 -38 12.66 4.61
 -2 -24 38 3.21 5.48
 4 -24 38 6.49 5.43
 24 -4 -38 3.73 4.45
 -4 -24 38 1.95 4.88
 24 4 -38 9.04 4.7
 1 0 -39 108.12 6.72
 0 -1 -39 93.86 6.69
 -1 0 -39 115.21 6.46
 0 1 -39 104.28 6.66
 1 2 -39 65.65 4.88
 -1 -2 -39 59.35 4.58
 1 -2 -39 65.92 4.61
 -2 -1 -39 72.07 4.69
 2 1 -39 63.65 4.75
 0 -3 -39 57.19 4.41
 3 0 -39 42.82 4.37
 3 -2 -39 1.26 3.74
 -2 -3 -39 0.2 3.61
 2 3 -39 -1.7 3.78
 3 2 -39 2.17 3.9
 2 -3 -39 6.96 3.72
 -1 -4 -39 50.75 4.5
 4 -1 -39 52.1 4.42
 1 4 -39 59.46 4.32
 4 1 -39 44.89 4.44
 1 -4 -39 54.79 4.54
 3 4 -39 4.61 3.64
 4 -3 -39 0.63 3.98
 3 -4 -39 -2.57 3.94
 4 3 -39 1.01 3.96
 0 -5 -39 305.55 13.06
 0 5 -39 303.38 12.72
 2 5 -39 79.83 6.74
 -2 -5 -39 92.59 6.35
 2 -5 -39 90.71 7.03
 5 2 -39 88.23 6.56
 5 -4 -39 53.58 4.62
 4 5 -39 40.25 4.23
 4 -5 -39 42.46 4.44
 -1 -6 -39 25.54 4.04
 1 6 -39 24.46 3.8
 6 -1 -39 25.03 4.19
 -6 1 -39 20.06 3.42
 6 1 -39 22.93 3.96
 1 -6 -39 21.5 4.14
 -3 -6 -39 -1.33 3.53
 3 6 -39 7.23 3.93
 6 -3 -39 -2.84 3.95
 3 -6 -39 -0.92 3.96
 6 3 -39 -2.53 3.6
 6 -5 -39 10.53 4.41
 5 6 -39 4.15 3.81
 6 5 -39 9.1 4.08
 5 -6 -39 -2 4.28
 -5 -6 39 2.01 4.44
 0 7 -39 146.87 7.95
 -7 0 -39 125.51 7.01
 0 -7 39 120.73 7.93
 7 0 -39 147.65 7.68
 7 -2 -39 6.58 3.81
 2 7 -39 3.79 4.2
 -7 -2 -39 3.14 3.03
 2 -7 -39 4.18 4.18
 7 -4 -39 -7.89 3.91
 4 7 -39 1.15 4.4
 7 4 -39 -3.19 3.5
 -7 -4 -39 -2.51 3.7
 4 -7 -39 5.67 4.39
 -4 -7 39 -2.52 4.51
 -7 -6 39 16.34 4.62
 7 -6 -39 19.75 4.34
 6 7 -39 20.95 4.51
 7 6 -39 22.99 4.05
 6 -7 -39 12.7 4.21
 -6 -7 39 22.07 4.64
 1 -8 39 32.58 4.56
 -8 1 -39 16.87 3.56
 8 -1 -39 23.46 3.96
 1 8 -39 31.09 4.36
 -8 -1 -39 21.85 3.49
 -1 -8 39 27.02 4.26
 8 1 -39 27 4.04
 3 -8 39 -3.12 4.15
 8 -3 -39 -1.9 4.07
 -3 -8 39 4.72 4.55
 8 3 -39 1.42 3.88
 8 -5 -39 9.28 4.64
 5 8 -39 9.43 4.12
 -8 -5 -39 15.2 3.27
 5 -8 -39 9.2 4.06
 -5 -8 39 16.04 4.45
 8 5 -39 5.2 3.83
 7 8 -39 -3.8 4.13
 8 -7 -39 -8.12 4.53
 -8 -7 39 -1.46 4.3
 -7 -8 39 -4.61 4.57
 7 -8 -39 0.56 4.2
 8 7 -39 -2.06 4.09
 -9 0 -39 181.49 8.78
 9 0 -39 187.03 9.45
 0 9 -39 198.37 9.51
 -9 2 -39 16.67 3.48
 2 9 -39 22.85 4.35
 2 -9 39 20.74 4.31
 9 -2 -39 16 4.07
 9 2 -39 18.03 4.09
 4 9 -39 2.75 4.16
 4 -9 39 3.53 4.08
 9 -4 -39 -0.87 4.18
 -4 -9 39 0.79 4.43
 9 4 -39 7.95 3.88
 -9 -6 39 -4.88 4.12
 6 9 -39 0.62 4.3
 6 -9 39 -8.13 4.13
 9 -6 -39 -7.79 4.55
 9 6 -39 -1.51 4.39
 -6 -9 39 1.12 4.49
 8 9 -39 2.62 4.19
 9 -8 -39 8.57 4.58
 -9 -8 39 6.49 4.26
 9 8 -39 13 4.46
 8 -9 -39 10.93 4.32
 -8 -9 39 8.12 4.47
 1 10 -39 18.69 4.38
 -10 1 -39 19.33 3.63
 1 -10 39 14.15 4.41
 10 -1 -39 19.95 4.04
 -10 -1 -39 13.35 3.38
 -1 -10 39 18.37 4.55
 -10 3 -39 1.39 3.36
 3 10 -39 4.42 4.47
 10 -3 -39 -4.58 4.41
 3 -10 39 10.39 4.28
 -10 -3 -39 -2.63 3.23
 -3 -10 39 -0.56 4.73
 10 3 -39 0.81 3.98
 5 10 -39 -5.58 4.35
 10 -5 -39 -6.53 4.13
 5 -10 39 -4 4.19
 -10 -5 -39 3.42 3.29
 10 5 -39 1.28 4.38
 -5 -10 39 5.12 4.68
 10 -7 -39 1.48 4.34
 7 -10 39 -0.4 4.04
 -10 -7 39 9 3.99
 7 10 -39 -5.8 4.24
 10 7 -39 3.93 4.33
 -7 -10 39 -3.28 4.5
 9 10 -39 8.35 4.47
 -10 -9 39 -4.02 3.94
 10 -9 -39 2.65 4.46
 9 -10 39 -1.31 4.03
 10 9 -39 -1.22 4.19
 -9 -10 39 -3.53 3.92
 11 0 -39 206.63 10.17
 0 11 -39 214.6 10.13
 -11 0 -39 225.23 9.66
 -11 2 -39 40.01 3.88
 2 11 -39 52.59 5.03
 2 -11 39 41.52 4.91
 11 -2 -39 44.45 4.67
 11 2 -39 34.97 4.4
 -2 -11 39 40.53 5.18
 -11 -2 -39 40.22 3.83
 11 -4 -39 6.62 4.2
 -11 4 -39 13.61 3.72
 4 -11 39 14.31 4.39
 4 11 -39 8.46 4.11
 -11 -4 -39 9.51 3.31
 -4 -11 39 14.26 4.89
 11 4 -39 10.86 4.2
 6 11 -39 -0.89 4.51
 6 -11 39 7.92 4.23
 11 -6 -39 4.06 4.05
 11 6 -39 3.74 4.3
 -6 -11 39 3.31 4.53
 -11 -6 -39 6 3.28
 11 -8 -39 14.66 4.34
 8 -11 39 10.56 4.2
 -11 -8 39 19.7 4.46
 8 11 -39 12.95 4.67
 11 8 -39 10.67 4.34
 10 11 -39 -2.19 4.41
 -11 -10 39 2.01 4.15
 10 -11 39 -4.49 3.89
 11 -10 -39 5.75 4.54
 11 10 -39 8.57 4.44
 -10 -11 39 -1.46 4.55
 1 12 -39 7.4 4.73
 12 -1 -39 9.09 4.16
 -12 1 -39 4.83 3.3
 1 -12 39 1.99 4.57
 12 1 -39 7.7 4.03
 -1 -12 39 11.46 4.52
 -12 -1 -39 10.7 3.33
 3 -12 39 -3.98 4.31
 12 -3 -39 3.21 4.15
 3 12 -39 8.81 4.47
 -12 3 -39 -0.95 3.24
 -12 -3 -39 -4.25 3.2
 12 3 -39 7.17 3.95
 -3 -12 39 2.37 4.64
 5 -12 39 20.28 4.38
 -12 5 -39 14.73 3.43
 5 12 -39 19.29 4.57
 12 -5 -39 13.03 4.06
 12 5 -39 14.42 4.49
 -12 -5 -39 14.05 3.35
 -5 -12 39 12.12 4.37
 7 12 -39 35.52 4.56
 7 -12 39 32.02 4.42
 -12 -7 39 28.05 4.81
 12 -7 -39 17.94 4.46
 12 7 -39 22.67 4.31
 -7 -12 39 28.73 4.64
 -12 -9 39 0.78 4.01
 9 12 -39 3.31 4.6
 12 -9 -39 12.86 4.52
 9 -12 39 10.65 4.15
 12 9 -39 8.52 4.5
 -9 -12 39 10.7 4.44
 11 12 -39 7.45 4.91
 -12 -11 39 2.22 4.47
 11 -12 39 -0.93 3.85
 12 -11 -39 3.49 4.05
 -11 -12 39 2.15 4.59
 12 11 -39 4.77 4.54
 13 0 -39 66.87 5.18
 0 -13 39 54.82 5.31
 -13 0 -39 68.89 5.51
 13 -2 -39 -4.51 4.01
 2 13 -39 5.69 4.75
 -13 2 -39 2.69 3.31
 -2 -13 39 -0.31 4.44
 13 2 -39 1.59 3.78
 -13 -2 -39 0.78 3.27
 13 -4 -39 0.6 4
 -13 4 -39 0.14 3.25
 4 -13 39 -8.88 4.6
 13 4 -39 -2.38 4.14
 -4 -13 39 -3.06 4.31
 -13 -4 -39 2.27 3.2
 6 -13 39 -5.59 4.42
 6 13 -39 -3.51 4.93
 13 -6 -39 5.37 4.11
 -13 6 -39 3.04 3.12
 -6 -13 39 -5.21 4.8
 13 6 -39 8.24 4.33
 -13 -6 -39 -3.48 3.19
 8 13 -39 6.95 4.77
 8 -13 39 7.18 4.21
 -13 -8 39 5.21 3.81
 13 -8 -39 2.38 4.29
 -8 -13 39 2.61 4.13
 13 8 -39 5.27 4.27
 10 -13 39 -5.39 3.98
 10 13 -39 -6.36 4.77
 -13 -10 39 -1.64 4.47
 13 -10 -39 3.39 4.39
 13 10 -39 -2.88 4.38
 -10 -13 39 -8.06 4.58
 12 -13 39 -1.08 3.86
 -13 -12 39 5.45 4.78
 13 -12 -39 -3.98 4.53
 12 13 -39 9.14 5.49
 13 12 -39 10.9 5.15
 -12 -13 39 -5.98 4.74
 -14 1 -39 1.09 3.12
 1 -14 39 3.53 4.61
 14 -1 -39 6.26 3.98
 14 1 -39 -5.79 4.22
 -1 -14 39 1.2 4.86
 -14 -1 -39 4.61 3.31
 -14 3 -39 12.14 3.23
 3 -14 39 10.79 4.8
 3 14 -39 9.37 5.07
 14 -3 -39 3.05 3.91
 -3 -14 39 13.17 5.02
 -14 -3 -39 5.4 3.31
 14 3 -39 1.88 3.93
 14 -5 -39 14.51 4.31
 5 14 -39 12.19 4.78
 -14 5 -39 23.79 3.24
 5 -14 39 18.12 4.61
 -5 -14 39 21.38 4.84
 -14 -5 -39 22.81 3.42
 7 -14 39 37.1 4.79
 -14 -7 39 33.22 4.62
 14 -7 -39 28.49 4.42
 -7 -14 39 29.11 4.48
 14 7 -39 30.3 4.35
 14 -9 -39 4.88 4.7
 9 14 -39 5.45 5.29
 -14 -9 39 11.08 4.28
 -9 -14 39 5.11 4.28
 -14 -11 39 19.2 4.72
 11 -14 39 13.72 4.15
 11 14 -39 14.63 5.61
 14 -11 -39 10.86 4.24
 14 11 -39 19.94 4.67
 -11 -14 39 10.25 4.72
 13 14 -39 1.86 5.05
 -14 -13 39 -1.37 4.55
 13 -14 39 8.33 3.84
 14 13 -39 4.05 4.76
 -15 0 -39 61.43 3.97
 0 -15 39 45.02 5.07
 15 0 -39 47.98 4.74
 2 -15 39 -0.01 4.85
 -15 2 -39 0.52 3.24
 15 -2 -39 4.01 3.96
 -2 -15 39 -5.25 4.48
 15 2 -39 1.54 4.19
 -15 -2 -39 7.31 3.33
 15 -4 -39 3.66 4.06
 4 -15 39 2.51 4.51
 -15 4 -39 -2.93 3
 -4 -15 39 3.16 4.44
 -15 -4 -39 -2.74 3.15
 15 4 -39 0.66 3.93
 15 -6 -39 8.31 4.04
 6 -15 39 5.26 4.53
 15 6 -39 5.23 4.6
 -15 -6 -39 2.44 3.29
 -6 -15 39 3.32 4.99
 8 -15 39 10.95 4.46
 15 -8 -39 2.25 4.23
 -15 -8 39 5.23 3.77
 15 8 -39 7.89 4.45
 -8 -15 39 2.77 4.16
 10 -15 39 -3.65 4.13
 15 -10 -39 5.79 4.34
 -15 -10 39 -3.15 4.51
 15 10 -39 7.63 4.36
 -10 -15 39 4.92 4.22
 -15 -12 39 3.89 4.55
 12 -15 39 3.54 4.06
 15 -12 -39 2.03 4.44
 15 12 -39 7.34 4.84
 -12 -15 39 -0.66 4.24
 14 -15 39 5.86 3.8
 -15 -14 39 -5.72 4.31
 -14 -15 39 -6.89 3.93
 15 14 -39 -5.82 5.32
 16 -1 -39 5.55 3.98
 1 -16 39 1.51 4.73
 -16 1 -39 1.83 2.91
 -1 -16 39 0.56 4.97
 16 1 -39 0.75 3.96
 3 -16 39 -0.88 4.6
 -16 -3 -39 3.33 3.19
 -3 -16 39 0.58 4.81
 16 3 -39 10.6 4.49
 5 -16 39 21.53 4.77
 16 -5 -39 11.34 4.11
 -5 -16 39 10.17 4.42
 -16 -5 -39 15.91 3.33
 16 5 -39 18.49 4.36
 16 -7 -39 20.29 4.34
 7 -16 39 27.44 4.83
 -7 -16 39 21.93 5.11
 -16 -7 -39 30.94 3.49
 16 -9 -39 5.52 4.51
 -16 -9 39 7.26 4.17
 9 -16 39 14.6 4.45
 -9 -16 39 7.22 4.32
 -16 -11 39 21.51 4.56
 16 -11 -39 15.29 4.63
 11 -16 39 16.96 4.25
 16 11 -39 13.67 5.18
 -11 -16 39 12.4 4.14
 13 -16 39 7.2 4.03
 -16 -13 39 2.19 4.3
 16 -13 -39 3.65 4.45
 -13 -16 39 1.59 3.95
 16 13 -39 12.63 5.29
 -16 -15 39 4.32 4
 -15 -16 39 -0.52 4.42
 17 0 -39 41.22 4.46
 0 -17 39 55.64 5.48
 17 -2 -39 19.04 4.29
 -17 -2 -39 21.29 3.38
 17 2 -39 18.43 4.26
 -2 -17 39 8.42 5.17
 17 -4 -39 14.99 4.18
 4 -17 39 12.81 4.76
 -4 -17 39 12.92 5.29
 17 4 -39 9.3 4.44
 -17 -4 -39 10.73 3.33
 6 -17 39 23.3 4.84
 17 -6 -39 8.11 4.06
 -17 -6 -39 13.67 3.39
 17 6 -39 20.87 4.64
 -6 -17 39 2.59 4.41
 8 -17 39 15.23 4.58
 17 -8 -39 11.68 4.74
 17 8 -39 9.83 4.42
 -8 -17 39 16.04 4.82
 10 -17 39 2.22 4.34
 -17 -10 39 -5.55 4.2
 17 -10 -39 6.63 4.21
 -10 -17 39 2.06 4.8
 17 10 -39 -1.22 4.4
 12 -17 39 -1.27 4.23
 -17 -12 39 0.33 4.22
 17 -12 -39 0.93 4.2
 17 12 -39 11.92 4.87
 -12 -17 39 6.66 4.78
 17 -14 -39 0.24 4.22
 -17 -14 39 1.73 3.97
 14 -17 39 -2.5 4.15
 -14 -17 39 1.54 4.53
 -17 -16 39 -1.43 4.51
 -16 -17 39 2.66 4.13
 1 -18 39 1.19 4.78
 18 -1 -39 -0.18 4.24
 -1 -18 39 9.2 4.75
 18 1 -39 1.08 4.02
 3 -18 39 13 5.13
 18 -3 -39 14.34 4.25
 -3 -18 39 16.25 4.74
 18 3 -39 9.95 4.15
 5 -18 39 11.59 5.02
 18 -5 -39 19.15 4.14
 -5 -18 39 25.42 5.17
 18 5 -39 28.46 4.47
 18 -7 -39 23.66 4.54
 7 -18 39 29.62 5.04
 -7 -18 39 17.51 4.56
 18 7 -39 31.43 4.88
 -18 -7 -39 27.52 3.41
 9 -18 39 17.11 4.51
 18 -9 -39 13.97 4.34
 -18 -9 39 9.87 3.85
 18 9 -39 20.95 4.99
 -9 -18 39 7.89 4.26
 11 -18 39 25.76 4.57
 18 -11 -39 24.54 4.71
 18 11 -39 31.06 5.45
 13 -18 39 4.59 4.14
 -18 -13 39 3.29 4.01
 18 -13 -39 -2.61 4.37
 18 13 -39 9.66 5.58
 -13 -18 39 9.2 4.03
 18 -15 -39 -1.35 4.16
 -18 -15 39 8.03 4.71
 -15 -18 39 4.3 3.89
 0 -19 39 13 5.1
 19 0 -39 8.47 4.1
 19 -2 -39 27.79 4.45
 2 -19 39 27.31 5.02
 -2 -19 39 16.39 4.93
 19 2 -39 18.22 4.38
 4 -19 39 14.83 5.14
 19 -4 -39 9.4 4.13
 -19 -4 -39 13.43 3.26
 -4 -19 39 11.06 5
 19 4 -39 21.9 4.35
 19 -6 -39 -7.56 4.16
 6 -19 39 -1.91 4.78
 -6 -19 39 9.69 4.83
 -19 -6 -39 3.66 3.24
 19 6 -39 -0.14 4.25
 19 -8 -39 -6.38 4.23
 8 -19 39 -1.29 4.63
 -8 -19 39 -3.94 5
 19 8 -39 8.22 4.46
 -19 -8 -39 -3.15 3.13
 10 -19 39 3.35 4.42
 19 -10 -39 0.39 4.59
 -19 -10 39 6.66 4.05
 -10 -19 39 4.03 4.7
 19 10 -39 8.43 4.73
 19 -12 -39 -6.46 4.57
 -19 -12 39 -2.58 4.04
 12 -19 39 7.86 4.24
 19 12 -39 -8.14 4.84
 -12 -19 39 1.53 4.57
 -19 -14 39 0.71 4.75
 19 -14 -39 -9.49 4.49
 -14 -19 39 1.65 4.6
 20 -1 -39 0.36 4.12
 1 -20 39 2.5 5.15
 20 1 -39 3.06 4.22
 -1 -20 39 7.48 5.05
 20 -3 -39 6.76 4.14
 3 -20 39 4.86 5.16
 20 3 -39 0.4 4.33
 -3 -20 39 2.51 4.86
 5 -20 39 13.28 5.15
 20 5 -39 1.7 4.44
 -5 -20 39 10.07 5.27
 20 -7 -39 2.22 4.38
 7 -20 39 0.59 4.82
 20 7 -39 -7.81 4.4
 -20 -7 -39 2.37 3.27
 -7 -20 39 -1.17 4.47
 -20 -9 39 0.65 4.46
 20 -9 -39 0.05 4.28
 9 -20 39 7.15 4.69
 -9 -20 39 0.64 4.28
 20 9 -39 9.2 4.67
 -20 -11 39 -0.74 4.54
 11 -20 39 -2.33 4.45
 20 -11 -39 5.84 4.22
 -11 -20 39 5.95 4.21
 20 11 -39 8.7 5.01
 20 -13 -39 -1.4 4.36
 13 -20 39 3.72 4.32
 -20 -13 39 -5.33 4.63
 -13 -20 39 1.25 3.92
 20 13 -39 2.92 5.43
 0 -21 39 1.52 5.14
 21 0 -39 -0.58 4.2
 2 -21 39 7.63 5.15
 21 -2 -39 -1.09 4.09
 21 2 -39 0.76 4.41
 -2 -21 39 10.08 4.98
 21 -4 -39 -0.82 4.22
 4 -21 39 8.06 5.13
 21 4 -39 0.37 4.55
 -4 -21 39 9.63 5.43
 6 -21 39 12.91 5.1
 21 -6 -39 -4.94 4.37
 21 6 -39 2.28 4.65
 -6 -21 39 2.18 4.63
 8 -21 39 10.05 4.89
 21 -8 -39 -0.84 4.19
 21 8 -39 4.5 4.81
 -8 -21 39 1.98 4.89
 10 -21 39 5.73 4.77
 21 -10 -39 1.42 4.2
 -21 -10 39 -1.93 4.35
 -10 -21 39 1.62 4.93
 21 10 -39 3.48 5.03
 1 -22 39 -3.23 5.13
 22 -1 -39 5.63 4.1
 22 1 -39 -1.52 4.37
 -1 -22 39 5.9 5.06
 22 -3 -39 -4.37 4.13
 3 -22 39 2.52 5.09
 -3 -22 39 5.26 5.4
 22 3 -39 14.61 4.72
 5 -22 39 13.82 5.27
 22 -5 -39 11.15 4.57
 -5 -22 39 7.02 5.07
 22 5 -39 13.3 4.73
 7 -22 39 12.78 5.02
 -7 -22 39 17.28 5.37
 22 7 -39 12.19 4.67
 22 -9 -39 -2.46 4.21
 9 -22 39 9.28 4.82
 22 9 -39 1.52 4.69
 -9 -22 39 6.07 4.91
 0 -23 39 16.15 5.33
 23 0 -39 30.02 4.49
 23 -2 -39 27.67 4.36
 23 2 -39 38.68 4.86
 -2 -23 39 32.99 5.82
 4 -23 39 16.59 5.42
 23 -4 -39 13.98 4.68
 -4 -23 39 5.66 5.15
 23 4 -39 14.45 4.73
 23 -6 -39 8.04 4.2
 6 -23 39 7.57 5.2
 -6 -23 39 10.97 5.4
 23 6 -39 6.8 4.58
 -1 1 -40 5.95 3.32
 1 -1 -40 -1.68 3.96
 -1 -1 -40 3.03 3.52
 1 1 -40 -1.43 3.4
 0 2 -40 236.34 10.98
 -2 0 -40 234.58 12.28
 0 -2 -40 256.9 10.87
 2 0 -40 254.36 10.87
 2 2 -40 26.87 3.97
 2 -2 -40 28.5 4.04
 -2 -2 -40 34.09 3.64
 1 3 -40 -3.99 3.7
 3 -1 -40 5.77 3.63
 1 -3 -40 3.59 3.83
 3 1 -40 1.99 3.74
 3 -3 -40 -7.24 3.82
 3 3 -40 -0.98 3.7
 4 0 -40 338.31 13.93
 0 -4 -40 335.63 13.84
 0 4 -40 324.78 13.64
 -2 -4 -40 -6.38 3.64
 4 -2 -40 6.07 3.78
 4 2 -40 -1.66 3.72
 2 -4 -40 -2.24 3.89
 4 -4 -40 14.34 3.87
 4 4 -40 11.96 4.03
 -1 -5 -40 -0.24 4.18
 1 5 -40 7.12 3.69
 5 -1 -40 -0.14 3.88
 5 1 -40 1.73 3.68
 1 -5 -40 2.22 3.86
 3 5 -40 6.16 3.78
 -3 -5 -40 1.48 3.4
 5 -3 -40 5.86 3.92
 5 3 -40 0.19 3.6
 3 -5 -40 2.79 4.02
 5 -5 -40 6.04 4.2
 5 5 -40 0.1 3.9
 0 6 -40 46.17 4.27
 0 -6 -40 41.57 4.83
 6 0 -40 41.82 4.36
 6 -2 -40 78.74 6.68
 -2 -6 -40 86.37 6.59
 6 2 -40 78.07 6.57
 2 -6 -40 94.21 5.77
 4 6 -40 23.52 4.01
 6 -4 -40 14.63 4.15
 6 4 -40 27.03 3.94
 -6 6 -40 58.27 4.58
 6 6 -40 73.82 4.75
 7 -1 -40 1.65 4.03
 1 7 -40 7.85 4.05
 -1 -7 40 8.98 4.3
 7 1 -40 1.35 4.18
 1 -7 -40 11.6 4.16
 7 -3 -40 1.18 3.87
 3 7 -40 10.13 4.37
 3 -7 -40 4.13 4.11
 -3 -7 40 6.12 4.44
 7 3 -40 6.55 3.93
 -7 -3 -40 11.72 3.11
 7 -5 -40 2.29 4.46
 5 7 -40 -2.42 4.47
 5 -7 -40 2.16 3.98
 7 5 -40 -0.89 4.1
 -5 -7 40 -2.25 4.29
 7 7 -40 2.35 4.29
 7 -7 -40 -2.11 4.39
 -7 -7 40 -7.78 4.21
 8 0 -40 173.11 8.66
 0 -8 40 163.91 8.99
 -8 0 -40 161.96 7.98
 2 8 -40 11.01 4.36
 -8 2 -40 2.39 3.41
 2 -8 40 4.13 4.22
 8 -2 -40 4.26 3.76
 -8 -2 -40 8.37 3.2
 8 2 -40 7.89 4.27
 -2 -8 40 12.15 4.44
 4 8 -40 21.93 4.23
 8 -4 -40 22.34 4.71
 -4 -8 40 21.7 4.43
 4 -8 -40 12.61 4.28
 -8 -4 -40 14.81 3.33
 8 4 -40 19.9 4.26
 6 8 -40 -3.69 3.98
 8 -6 -40 -0.02 4.36
 8 6 -40 0.31 4.33
 -8 -6 -40 -0.37 3.09
 6 -8 -40 -0.77 4.34
 -6 -8 40 1.24 4.15
 8 8 -40 7.45 4.26
 -8 -8 40 13.8 4.62
 8 -8 -40 11.33 4.3
 1 -9 40 5.64 4.41
 1 9 -40 5.98 4.37
 9 -1 -40 1.08 3.91
 9 1 -40 -1.64 4.2
 -1 -9 40 5.1 4.33
 9 -3 -40 7.84 4.21
 3 -9 40 3.78 4.32
 3 9 -40 4.7 4.05
 -9 -3 -40 1.2 3.23
 -3 -9 40 -2.98 4.49
 9 3 -40 3.81 3.99
 9 -5 -40 6.69 4.01
 5 9 -40 1.46 4.39
 5 -9 40 5.98 4.24
 9 5 -40 13.72 4.24
 -9 -5 -40 15.2 3.26
 -5 -9 40 12.37 4.35
 9 -7 -40 3.12 4.34
 -9 -7 40 1.35 4.64
 7 9 -40 5.79 4.47
 -7 -9 40 13.55 4.55
 9 7 -40 -0.28 3.99
 7 -9 -40 2.94 4.37
 -9 -9 40 -6.91 4.2
 9 -9 -40 -0.23 4.17
 9 9 -40 4.35 4.27
 -10 0 -40 74.69 5.77
 10 0 -40 68.73 4.86
 0 -10 40 58.74 5.14
 10 -2 -40 4.6 4.29
 -10 2 -40 7.72 3.38
 2 -10 40 2.96 4.39
 2 10 -40 2.02 4.37
 10 2 -40 11.39 4.19
 -2 -10 40 -3.13 4.66
 -10 -2 -40 5.91 3.3
 10 -4 -40 7.93 4.03
 -10 4 -40 -1.06 3.41
 4 10 -40 5.01 4.26
 4 -10 40 7.54 4.31
 10 4 -40 3.38 4.08
 -4 -10 40 9.34 4.67
 -10 -4 -40 6 3.34
 10 -6 -40 4.98 4.42
 6 -10 40 6.28 4.22
 6 10 -40 4.89 4.11
 10 6 -40 6.06 3.87
 -10 -6 -40 9.32 3.29
 -6 -10 40 7.05 4.64
 -10 -8 40 -6.4 3.99
 8 10 -40 0.91 4.18
 8 -10 40 3.78 4
 10 -8 -40 0.09 4.24
 -8 -10 40 1.9 4.4
 10 8 -40 -0.46 4.3
 10 10 -40 1.11 4.56
 -10 -10 40 -7.62 4.36
 -11 1 -40 -0.36 3.27
 11 -1 -40 4.99 4.02
 1 -11 40 0.84 4.47
 1 11 -40 4.2 4.24
 11 1 -40 4.78 4.05
 -1 -11 40 -7.26 4.39
 -11 -1 -40 1.33 3.38
 11 -3 -40 -2.72 4.15
 3 -11 40 7.49 4.26
 3 11 -40 -5.03 4.05
 -11 3 -40 -1.02 3.38
 11 3 -40 -9.78 4.23
 -3 -11 40 1.88 4.59
 -11 -3 -40 2.76 3.28
 5 11 -40 -0.12 4.55
 5 -11 40 5.85 4.4
 -11 5 -40 -0.41 3.5
 11 -5 -40 1.52 4.35
 -11 -5 -40 2.42 3.35
 11 5 -40 6.49 3.85
 -5 -11 40 -0.96 4.65
 7 -11 40 1.89 4.12
 -11 -7 40 8.38 4.02
 7 11 -40 11.1 4.69
 -7 -11 40 -0.67 4.33
 11 7 -40 2.48 4.29
 9 -11 40 -4.64 3.94
 11 -9 -40 -3.3 4.11
 -11 -9 40 -2.87 4.32
 9 11 -40 0.14 4.84
 11 9 -40 6.71 4.43
 -9 -11 40 -1.72 4.32
 11 11 -40 1.1 4.52
 -11 -11 40 2.33 3.92
 11 -11 -40 4.01 4.35
 12 0 -40 6.29 3.99
 0 -12 40 -0.31 4.35
 0 12 -40 13.05 4.17
 -12 0 -40 6.06 3.45
 12 -2 -40 11.42 4.21
 2 -12 40 12.4 4.61
 2 12 -40 20.24 4.53
 -12 2 -40 18.09 3.38
 -2 -12 40 17.3 4.79
 -12 -2 -40 19.65 3.48
 12 2 -40 13.46 4.18
 4 -12 40 3.42 4.39
 -12 4 -40 5.21 3.46
 4 12 -40 1.5 4.51
 12 -4 -40 5.81 4.41
 -12 -4 -40 4.48 3.26
 12 4 -40 1.71 4.03
 -4 -12 40 -4.79 4.59
 -12 6 -40 1.24 3.28
 6 12 -40 3.76 4.51
 12 -6 -40 9.12 4.75
 6 -12 40 2.3 4.29
 -12 -6 -40 8.94 3.35
 -6 -12 40 9.26 4.12
 12 6 -40 8.22 4.17
 12 -8 -40 5.3 4.39
 8 -12 40 -0.42 4.17
 -12 -8 40 0.85 4.63
 8 12 -40 9.27 4.73
 -8 -12 40 5.38 4.8
 12 8 -40 7.4 4.56
 -12 -10 40 -3.38 3.77
 12 -10 -40 4.37 4.41
 10 -12 40 -1.12 3.97
 10 12 -40 -4.72 4.54
 -10 -12 40 -1.62 4.01
 12 10 -40 -1.74 4.33
 12 12 -40 18.69 4.85
 1 13 -40 5.59 4.45
 13 -1 -40 3.55 4.15
 1 -13 40 0.36 4.66
 -13 1 -40 -0.04 3.15
 -1 -13 40 3.77 4.56
 13 1 -40 -1.35 3.84
 -13 -1 -40 -1.74 3.29
 -13 3 -40 1.25 3.47
 13 -3 -40 -0.55 4.38
 3 13 -40 3.97 4.36
 3 -13 40 -2.54 4.57
 13 3 -40 2.12 4.24
 -3 -13 40 -3.21 4.48
 -13 -3 -40 3.26 3.22
 13 -5 -40 13.23 4.45
 5 -13 40 6.66 4.49
 -13 5 -40 19.21 3.4
 5 13 -40 12.32 4.95
 13 5 -40 5.35 4.04
 -13 -5 -40 13.94 3.35
 -5 -13 40 9.84 4.72
 -13 -7 40 8.29 4.27
 7 -13 40 -1.97 4.26
 7 13 -40 5.45 4.55
 13 7 -40 3.53 4.59
 -7 -13 40 6.54 4.63
 -13 -9 40 -1.29 3.82
 9 -13 40 8.13 4.14
 9 13 -40 1.3 4.55
 13 9 -40 6.14 4.12
 -9 -13 40 6.04 4.18
 11 13 -40 7.64 4.79
 11 -13 40 -3.52 3.98
 13 -11 -40 0.4 4.36
 -13 -11 40 2.45 4.16
 13 11 -40 -0.39 4.75
 -11 -13 40 2.34 3.94
 13 -13 40 -4.94 3.81
 -13 -13 40 -4.28 3.97
 13 13 -40 -0.76 5.24
 0 -14 40 0.62 4.74
 -14 0 -40 0.02 3.2
 14 0 -40 4.94 4.29
 -14 2 -40 8.87 3.27
 14 -2 -40 11.55 4.38
 2 14 -40 10.25 4.65
 2 -14 40 0.03 4.47
 -14 -2 -40 11.8 3.36
 -2 -14 40 4.58 4.95
 14 2 -40 5.12 3.7
 14 -4 -40 -3.81 4.26
 4 14 -40 -8.46 4.48
 -14 4 -40 7.12 3.14
 4 -14 40 0.66 4.5
 -14 -4 -40 4.9 3.24
 14 4 -40 1.48 4.3
 -4 -14 40 -1.92 4.74
 6 14 -40 4.16 5.18
 6 -14 40 2.7 4.49
 -14 6 -40 3.41 2.98
 14 -6 -40 0.05 4.47
 -6 -14 40 -0.3 4.12
 -14 -6 -40 -1.48 3.23
 14 6 -40 0 4.26
 -14 -8 40 -1.97 4.02
 8 -14 40 -1.11 4.21
 14 -8 -40 -3.75 4.46
 8 14 -40 -0.72 4.87
 14 8 -40 2.15 4.24
 -8 -14 40 0.94 4.66
 -14 -10 40 -6.26 3.88
 14 -10 -40 1.61 4.48
 10 -14 40 -1.78 4.07
 10 14 -40 -7.12 4.99
 -10 -14 40 10.24 4.14
 14 10 -40 1.96 4.87
 12 -14 40 0.06 3.91
 14 -12 -40 7.13 4.31
 -14 -12 40 1.62 4.1
 12 14 -40 5.41 5.4
 14 12 -40 7.29 4.9
 -12 -14 40 -3.52 3.95
 14 -14 40 7.87 3.79
 14 14 -40 4.4 5.09
 -14 -14 40 7.46 3.92
 1 -15 40 -4.79 4.75
 -15 1 -40 -1.78 3.21
 15 -1 -40 -1.96 4.27
 15 1 -40 -0.46 4.32
 -1 -15 40 -3.86 4.56
 -15 -1 -40 6.64 3.35
 -15 3 -40 3.51 3.1
 15 -3 -40 -1.66 4.1
 3 -15 40 0.92 4.66
 -15 -3 -40 1.18 3.29
 15 3 -40 2.56 3.95
 -3 -15 40 -2.72 4.46
 15 -5 -40 5.14 4.31
 5 -15 40 9.31 4.56
 -15 5 -40 7.44 2.96
 -5 -15 40 4.99 4.72
 -15 -5 -40 4.16 3.3
 15 5 -40 5.85 4.12
 15 -7 -40 0.15 4.78
 7 -15 40 9.11 4.6
 -7 -15 40 5.59 4.47
 -15 -7 -40 5.3 3.25
 15 7 -40 11.72 4.6
 9 -15 40 -2.45 4.24
 -15 -9 40 -3.98 3.75
 15 -9 -40 3.1 4.24
 -9 -15 40 3.64 4.88
 15 9 -40 -2.94 4.36
 11 -15 40 3.92 4.22
 -15 -11 40 -3.88 4.04
 15 -11 -40 -6.49 4.35
 -11 -15 40 -7.65 4.29
 15 11 -40 -7.17 4.33
 13 -15 40 0.26 3.92
 15 -13 -40 -6.93 4.18
 -15 -13 40 -2.27 3.84
 15 13 -40 -5.81 4.89
 -13 -15 40 -2.04 4.16
 -15 -15 40 -8.42 4.46
 0 -16 40 8.81 4.88
 16 0 -40 13.93 4.04
 16 -2 -40 9.58 4.19
 -16 2 -40 7.61 3.06
 2 -16 40 7.42 4.66
 16 2 -40 4.47 4.42
 -2 -16 40 10.39 4.96
 -16 -2 -40 10.6 3.3
 16 -4 -40 5.45 4.16
 -16 4 -40 2.69 2.81
 4 -16 40 5.44 4.67
 -16 -4 -40 -1.34 3.22
 16 4 -40 5.56 4.35
 -4 -16 40 -1.43 4.51
 6 -16 40 2 4.45
 16 -6 -40 0.57 4.53
 -6 -16 40 -2.85 4.5
 -16 -6 -40 2 3.3
 16 6 -40 4.72 4.23
 -16 -8 40 4.78 4.05
 8 -16 40 -1.66 4.47
 16 -8 -40 4.49 4.37
 16 8 -40 -1.28 4.27
 -8 -16 40 -6.75 4.4
 -16 -10 40 -0.46 3.78
 10 -16 40 4.86 4.39
 16 -10 -40 7.64 4.65
 16 10 -40 15.21 4.85
 -16 -12 40 0.91 3.83
 16 -12 -40 6.52 4.59
 12 -16 40 9.62 4.14
 -12 -16 40 3.01 4.66
 16 12 -40 13.99 5.23
 16 -14 -40 18.12 4.51
 -16 -14 40 9.31 4.14
 14 -16 40 7.76 4.07
 -14 -16 40 12.94 4.63
 16 14 -40 10.94 5.65
 -16 -16 40 8.52 4.35
 17 -1 -40 3.33 4
 -17 1 -40 -0.69 2.96
 1 -17 40 2.03 5.03
 17 1 -40 4.79 4
 -1 -17 40 2.7 5
 -17 -1 -40 -1.39 2.89
 17 -3 -40 -0.68 4.06
 3 -17 40 5.49 4.8
 -17 -3 -40 0.63 3.26
 -3 -17 40 1.96 5.05
 17 3 -40 6.9 4.35
 17 -5 -40 3.47 4.18
 5 -17 40 2.38 4.72
 17 5 -40 0.61 4.63
 -5 -17 40 -0.77 4.67
 -17 -5 -40 -2.91 3.18
 7 -17 40 4.13 4.51
 17 -7 -40 -4.13 4.4
 -17 -7 -40 -3.35 3.24
 17 7 -40 1.69 4.49
 -7 -17 40 -4.52 4.57
 9 -17 40 5.89 4.41
 -17 -9 40 3.1 3.79
 17 -9 -40 -2.68 4.2
 17 9 -40 8.05 4.44
 -9 -17 40 -3.5 4.08
 11 -17 40 4.91 4.33
 -17 -11 40 5.67 3.84
 17 11 -40 7.57 4.83
 -11 -17 40 6.4 4.26
 17 -13 -40 1.77 4.22
 -17 -13 40 3.07 3.96
 13 -17 40 10.01 4.03
 -13 -17 40 -2.14 4.07
 17 13 -40 0.86 4.94
 17 -15 -40 8.23 4.48
 -17 -15 40 1.66 4.49
 -15 -17 40 2.16 3.89
 18 0 -40 131.69 7.89
 0 -18 40 104.75 8.49
 2 -18 40 98.52 7.77
 18 -2 -40 97.45 7.69
 -18 -2 -40 106.6 5.89
 4 -18 40 63.17 5.67
 18 -4 -40 57 5.01
 -18 -4 -40 62.07 4.29
 18 4 -40 56.4 5.09
 -4 -18 40 75.01 5.96
 6 -18 40 29.47 4.92
 18 -6 -40 35.49 4.79
 -18 -6 -40 25.19 3.53
 18 6 -40 33.94 4.65
 18 -8 -40 5.32 4.1
 8 -18 40 11.58 4.58
 -18 -8 -40 9.33 3.27
 18 8 -40 16.31 4.72
 -8 -18 40 10.43 4.9
 18 -10 -40 2.06 4.33
 10 -18 40 4.45 4.38
 -10 -18 40 4.14 4.56
 18 10 -40 -6.01 4.84
 -18 -12 40 2.53 4.13
 12 -18 40 1.12 4.21
 18 -12 -40 -1.1 4.47
 -12 -18 40 -1.09 4.3
 18 12 -40 4.1 5.15
 18 -14 -40 -5.92 4.13
 -18 -14 40 2.41 4.58
 -14 -18 40 10.07 4.66
 1 -19 40 -1.25 4.89
 19 -1 -40 3.31 4
 -1 -19 40 5.06 4.79
 19 1 -40 6.7 4.01
 3 -19 40 -6.12 5.08
 19 -3 -40 6.27 4.17
 -3 -19 40 1.09 4.71
 19 3 -40 1.51 4.16
 19 -5 -40 -5.38 4.4
 5 -19 40 1.28 4.84
 -5 -19 40 -11.26 5
 19 -7 -40 -0.64 4.16
 7 -19 40 1.04 4.75
 -19 -7 -40 3.09 3.28
 -7 -19 40 -1.07 4.38
 19 7 -40 0.74 4.26
 -19 -9 40 -4.4 4.3
 9 -19 40 6.97 4.51
 19 -9 -40 0.04 4.58
 19 9 -40 5.49 4.3
 -9 -19 40 3.44 4.33
 -19 -11 40 4.39 4.42
 11 -19 40 0.17 4.39
 19 -11 -40 -6.17 4.45
 19 11 -40 2.66 4.77
 -11 -19 40 6.09 4.35
 13 -19 40 12.24 4.3
 -19 -13 40 -3.43 4.59
 19 -13 -40 -0.11 4.74
 -13 -19 40 6.27 4.2
 19 13 -40 4.26 5.25
 0 -20 40 -0.72 4.87
 20 0 -40 -1.51 4
 20 -2 -40 0.88 3.99
 2 -20 40 7.63 4.87
 -2 -20 40 7 4.78
 20 -4 -40 3.48 4.24
 4 -20 40 -1.49 5.05
 20 4 -40 2.6 4.35
 -4 -20 40 2.58 5.15
 20 -6 -40 -6.53 4.21
 6 -20 40 -5.33 4.78
 20 6 -40 4.52 4.46
 -20 -6 -40 -2.25 3.15
 -6 -20 40 0.78 4.59
 20 -8 -40 1.58 4.27
 8 -20 40 -2.34 4.71
 -20 -8 -40 -1.28 3.3
 -8 -20 40 -7.4 4.89
 -20 -10 40 -3.39 4.38
 20 -10 -40 5.58 4.21
 10 -20 40 2.12 4.42
 20 10 -40 12.3 5.16
 -10 -20 40 -3.38 4.81
 12 -20 40 11.03 4.37
 20 -12 -40 2.31 4.22
 -20 -12 40 3.7 4.53
 -12 -20 40 13.53 4.65
 20 12 -40 9.5 5.21
 21 -1 -40 5.89 4.04
 1 -21 40 0.34 5.04
 21 1 -40 8.8 4.27
 -1 -21 40 5.3 4.99
 3 -21 40 13.26 5.18
 21 3 -40 10.41 4.57
 -3 -21 40 12.52 5.16
 5 -21 40 14.95 5.09
 -5 -21 40 9.73 5.13
 21 5 -40 5.72 4.67
 7 -21 40 -2.56 4.89
 21 -7 -40 2.94 4.18
 21 7 -40 3.85 4.71
 -7 -21 40 10.13 4.85
 21 -9 -40 11.75 4.18
 9 -21 40 3.79 4.63
 21 9 -40 7.23 4.75
 -9 -21 40 4.8 4.27
 0 -22 40 33.78 5.42
 22 0 -40 36.64 4.52
 -2 -22 40 33.38 5.48
 22 2 -40 36 4.84
 22 -4 -40 20.3 4.67
 4 -22 40 28.53 5.48
 -4 -22 40 28.75 5.53
 22 4 -40 22.85 4.89
 6 -22 40 15.4 5.1
 -6 -22 40 19.19 4.77
 22 6 -40 9.77 4.53
 22 -8 -40 -1.22 4.24
 8 -22 40 4.93 4.99
 22 8 -40 4.42 4.53
 -8 -22 40 8.44 4.66
 1 -23 40 9.66 5.38
 23 -1 -40 4.03 4.1
 -1 -23 40 2.16 5.52
 23 1 -40 -2.67 4.32
 3 -23 40 6.69 5.41
 23 -3 -40 10.04 4.51
 23 3 -40 8.98 4.72
 0 1 -41 18.05 3.66
 -1 0 -41 16.65 3.76
 1 0 -41 15.38 3.85
 2 -1 -41 17.68 3.78
 -1 -2 -41 12.86 3.63
 1 2 -41 13.65 3.67
 -1 2 -41 19.57 3.55
 1 -2 -41 17.61 4
 -2 -1 -41 22.23 3.65
 2 1 -41 15.83 4.06
 3 0 -41 -4.44 3.49
 0 -3 -41 -2.49 4.09
 0 3 -41 0.99 3.41
 3 -2 -41 3.76 3.62
 2 3 -41 2.31 3.54
 -2 -3 -41 4.46 3.39
 3 2 -41 8.41 3.83
 2 -3 -41 -3.97 3.74
 4 -1 -41 13.4 3.91
 1 4 -41 4.89 3.68
 -1 -4 -41 6.94 3.89
 4 1 -41 9.72 3.72
 1 -4 -41 14.71 4.23
 3 4 -41 -1.74 3.75
 4 -3 -41 1.91 3.88
 4 3 -41 -1.26 3.51
 3 -4 -41 4.42 3.96
 5 0 -41 -3.87 3.92
 0 -5 -41 -4.22 4.08
 2 5 -41 8.83 3.92
 5 -2 -41 6.61 3.99
 5 2 -41 6.39 3.99
 2 -5 -41 6.51 4.2
 4 5 -41 2.9 3.96
 5 4 -41 6 3.71
 4 -5 -41 -1.28 4.27
 1 6 -41 9.32 3.9
 -6 1 -41 -0.23 3.61
 6 -1 -41 7.05 3.99
 -1 -6 -41 4.05 3.92
 1 -6 -41 12.42 4.35
 6 1 -41 8.43 4.32
 6 -3 -41 -6.43 3.73
 -3 -6 -41 -4.15 3.72
 3 6 -41 1.56 3.67
 3 -6 -41 -2.99 4.37
 6 3 -41 4.07 4.03
 6 -5 -41 -3.38 4.42
 5 6 -41 2.17 3.65
 5 -6 -41 -0.21 4.35
 6 5 -41 -1.83 4.19
 0 -7 -41 6.65 3.8
 -7 0 -41 10.8 3.32
 7 0 -41 8.29 4.18
 7 -2 -41 0.92 4.04
 -2 -7 -41 2.91 3.87
 2 7 -41 7.45 4.04
 7 2 -41 2.1 4
 2 -7 -41 0.09 3.81
 -7 -2 -41 3.14 3.08
 4 7 -41 -4.34 4.39
 7 -4 -41 1.24 4.4
 -4 -7 41 -0.23 4.35
 7 4 -41 -2.82 3.8
 4 -7 -41 1.77 4.09
 6 7 -41 -2.32 4.32
 7 -6 -41 0.8 4.28
 7 6 -41 -0.13 4.02
 -6 -7 41 6.28 4.15
 6 -7 -41 3.81 4.33
 -8 1 -41 -3.24 3.41
 8 -1 -41 4.38 3.98
 1 8 -41 0.52 4.23
 1 -8 41 5.77 4.29
 -8 -1 -41 -4.83 3.14
 8 1 -41 0.11 4.33
 -1 -8 41 2.19 4.27
 8 -3 -41 3.26 3.88
 3 8 -41 -0.99 3.99
 3 -8 -41 -3.3 4.4
 8 3 -41 1.65 3.7
 -3 -8 41 2.67 4.41
 -8 -3 -41 -2.36 3.2
 5 8 -41 3.08 3.9
 8 -5 -41 5.79 4.16
 -5 -8 41 -6.73 4.09
 8 5 -41 1.28 3.77
 -8 -5 -41 2.09 3.23
 5 -8 -41 0.94 4.33
 -8 -7 41 0.53 4.14
 8 -7 -41 6.84 4.45
 7 8 -41 0.8 4.05
 8 7 -41 -4.49 3.97
 7 -8 -41 -1.81 4.08
 -7 -8 41 2.2 3.99
 9 0 -41 -1.64 4.24
 0 -9 41 -2.64 4.12
 -9 0 -41 -3.23 3.34
 -9 2 -41 -1.51 3.32
 2 9 -41 5.46 4.06
 2 -9 41 5.59 4.2
 9 2 -41 14.01 3.81
 -9 -2 -41 5.19 3.32
 -2 -9 41 14.41 4.59
 9 -4 -41 -1.88 4.17
 4 -9 41 -6.28 4.22
 4 9 -41 6 4.53
 -4 -9 41 -0.26 4.1
 -9 -4 -41 1.8 3.21
 9 4 -41 8.13 3.8
 9 -6 -41 -2.06 4.52
 6 9 -41 -8.69 4.51
 -6 -9 41 -2.22 4.17
 -9 -6 -41 0.1 3.33
 6 -9 -41 -6.99 4.44
 9 6 -41 -5.87 3.98
 -9 -8 41 -0.03 4.45
 9 -8 -41 3.86 4.47
 8 9 -41 -0.97 4.4
 9 8 -41 3.2 4.56
 -8 -9 41 -3.44 4.53
 8 -9 -41 -5.55 4.15
 10 -1 -41 0.64 3.88
 1 10 -41 8.31 4.05
 -10 1 -41 5.52 3.42
 1 -10 41 0.18 4.45
 -10 -1 -41 5.66 3.35
 -1 -10 41 8.17 4.49
 3 -10 41 -4.61 4.33
 10 -3 -41 1.73 4.47
 3 10 -41 3.66 4.38
 10 3 -41 -2.71 3.81
 -3 -10 41 0.58 4.52
 -10 -3 -41 4.32 3.33
 10 -5 -41 -0.25 4.28
 5 -10 41 2.99 4.13
 5 10 -41 6.07 4.1
 10 5 -41 3.56 3.96
 -5 -10 41 4.08 4.43
 -10 -5 -41 2.07 3.25
 7 -10 41 -2.55 4.12
 7 10 -41 -4.51 4.14
 10 -7 -41 3.73 4.74
 -10 -7 41 0.55 4.53
 10 7 -41 -0.1 4.53
 -7 -10 41 2.49 4.68
 -10 -9 41 0.81 4.12
 9 10 -41 -1.87 4.19
 10 -9 -41 7.99 4.32
 9 -10 -41 -1.7 4
 10 9 -41 5.18 4.02
 -9 -10 41 1.31 4.06
 -11 0 -41 4.01 3.48
 0 -11 41 -2.68 4.23
 11 0 -41 6.47 4.01
 11 -2 -41 19.92 4.53
 2 -11 41 16.38 4.49
 2 11 -41 10.23 4.25
 -11 2 -41 22.29 3.51
 -11 -2 -41 19.99 3.58
 -2 -11 41 7.66 4.61
 11 2 -41 14.04 4.09
 11 -4 -41 6.51 4.05
 4 -11 41 -1.22 4.33
 4 11 -41 10.08 4.53
 -11 4 -41 2.13 3.69
 -4 -11 41 -4.87 4.72
 11 4 -41 -0.02 3.91
 -11 -4 -41 1.34 3.24
 6 11 -41 -0.61 4.37
 6 -11 41 -4.28 4.14
 11 -6 -41 2.68 4.25
 11 6 -41 -0.27 4.42
 -11 -6 -41 -1.84 3.32
 -6 -11 41 -6.3 4.52
 8 11 -41 0.15 4.41
 -11 -8 41 3.46 3.81
 11 -8 -41 4.52 4.57
 8 -11 41 1.95 4.02
 -8 -11 41 -0.79 3.94
 11 8 -41 0.02 3.98
 -11 -10 41 -0.7 4.55
 10 11 -41 -3.5 4.72
 11 -10 -41 -6.86 4.04
 11 10 -41 0.14 4.81
 -10 -11 41 -0.67 4.52
 10 -11 -41 -5.58 4.46
 -12 1 -41 5.15 3.34
 1 12 -41 13.77 4.16
 12 -1 -41 -1.38 4.19
 1 -12 41 1.6 4.67
 -12 -1 -41 5.02 3.3
 12 1 -41 6.73 4.12
 -1 -12 41 -0.98 4.3
 -12 3 -41 -1.92 3.32
 12 -3 -41 -3.05 3.86
 3 12 -41 -3.07 4.5
 3 -12 41 2.19 4.53
 12 3 -41 -1.56 3.89
 -3 -12 41 6.91 4.52
 -12 -3 -41 -1.49 3.22
 5 -12 41 1.4 4.44
 -12 5 -41 2.52 3.36
 5 12 -41 -0.9 4.36
 12 -5 -41 -1.17 4.02
 -12 -5 -41 -2.96 3.34
 12 5 -41 2.65 4.3
 -5 -12 41 1.67 4.27
 7 -12 41 -2.48 4.17
 12 -7 -41 -6.86 4.06
 7 12 -41 5.89 4.88
 12 7 -41 9.54 4.08
 -7 -12 41 2.19 4.09
 9 12 -41 5.95 5
 12 -9 -41 5.68 4.69
 9 -12 41 -2.76 4.03
 -12 -9 41 -1.96 4.39
 -9 -12 41 0.31 4.36
 12 9 -41 -1.64 4.68
 -12 -11 41 3.12 4.1
 11 12 -41 3.49 4.58
 11 -12 41 -4.01 4.05
 12 -11 -41 -3.07 4.32
 12 11 -41 8.4 4.38
 -11 -12 41 2.71 4.26
 -13 0 -41 8.23 3.35
 13 0 -41 -0.11 3.92
 0 -13 41 1.47 4.83
 -13 2 -41 16.12 3.48
 13 -2 -41 9.4 3.98
 2 -13 41 0.39 4.37
 2 13 -41 13.11 4.43
 13 2 -41 8.5 4.26
 -13 -2 -41 8.1 3.44
 -2 -13 41 7.68 4.59
 13 -4 -41 0.88 4.17
 4 13 -41 9.18 4.96
 -13 4 -41 -2.94 3.28
 4 -13 41 -2.35 4.42
 -13 -4 -41 1.18 3.36
 -4 -13 41 9.44 4.42
 13 4 -41 2.8 3.92
 6 -13 41 -2.31 4.22
 13 -6 -41 4.89 4.1
 -13 6 -41 1.04 3.16
 6 13 -41 4.28 4.33
 13 6 -41 -6.91 4.46
 -13 -6 -41 -0.36 3.24
 -6 -13 41 -4.75 4.88
 13 -8 -41 -2.77 4.46
 8 13 -41 11.23 4.61
 -13 -8 41 -6.31 4.21
 8 -13 41 -4.25 4.24
 13 8 -41 -5.41 4.34
 -8 -13 41 3.07 4.28
 13 -10 -41 -1.74 4.17
 -13 -10 41 -7.4 4
 10 13 -41 -2.34 4.57
 10 -13 41 1.34 4.08
 -10 -13 41 -1.7 4.65
 13 10 -41 4.26 4.29
 -13 -12 41 -1.92 3.82
 13 -12 -41 -6.88 4.17
 12 13 -41 -1.75 4.79
 12 -13 41 2.74 4.04
 -12 -13 41 -6.26 4.17
 13 12 -41 2.87 4.89
 14 -1 -41 5.9 4.13
 -14 1 -41 5.97 3.27
 14 1 -41 6.21 3.88
 -14 -1 -41 6.11 3.39
 14 -3 -41 0.08 4.2
 -14 3 -41 1.53 3.28
 3 14 -41 4.8 4.42
 3 -14 41 0.78 4.7
 -3 -14 41 1.72 4.75
 14 3 -41 -2.86 4.05
 -14 -3 -41 5.97 3.32
 14 -5 -41 0.16 4.21
 5 -14 41 -4.04 4.55
 -14 5 -41 0.88 3.07
 5 14 -41 0.04 5.1
 14 5 -41 -3.79 4.36
 -5 -14 41 -5.72 4.6
 -14 -5 -41 6.01 3.3
 7 14 -41 -2.34 4.77
 7 -14 41 7.82 4.39
 14 -7 -41 -0.95 4.11
 -7 -14 41 1.68 4.25
 -14 -7 -41 -3.51 3.32
 14 7 -41 2.98 4.06
 14 -9 -41 -1.49 4.61
 -14 -9 41 -3.18 4.15
 9 14 -41 -7.24 4.63
 9 -14 41 0.57 4.16
 -9 -14 41 -7.59 4.58
 14 9 -41 7.89 4.5
 14 -11 -41 -7.2 4.41
 -14 -11 41 -2.67 3.83
 11 14 -41 -1.36 4.92
 11 -14 41 -6.59 3.92
 -11 -14 41 -1.51 4.77
 14 11 -41 6.62 5.07
 14 -13 -41 -2.57 4.36
 13 -14 41 -2.23 3.85
 13 14 -41 -4.34 5.4
 -14 -13 41 0.3 3.97
 -13 -14 41 6.29 4.49
 14 13 -41 5.03 5.2
 -15 0 -41 2 3.12
 15 0 -41 7.08 4.2
 0 -15 41 1.14 4.78
 2 -15 41 4.81 4.67
 15 -2 -41 -2.97 4.43
 -15 2 -41 8.89 3.35
 -2 -15 41 9.27 4.54
 -15 -2 -41 7.27 3.34
 -15 4 -41 3.4 3.11
 4 -15 41 0.83 4.69
 15 -4 -41 -4.32 4.3
 -15 -4 -41 5.69 3.31
 -4 -15 41 -5 4.47
 15 4 -41 -5.24 4.03
 6 -15 41 -4.08 4.64
 15 -6 -41 1.36 4.14
 15 6 -41 5.35 4.54
 -6 -15 41 -2.43 4.78
 -15 -6 -41 3.84 3.32
 8 -15 41 -1.33 4.36
 -15 -8 41 4.93 4.42
 15 -8 -41 7.91 4.29
 15 8 -41 -2.46 4.54
 -8 -15 41 -3.34 4.13
 -15 -10 41 -2.42 3.89
 10 -15 41 -2.4 4.23
 15 -10 -41 1.79 4.28
 15 10 -41 7.09 4.45
 -10 -15 41 -3.15 4.48
 12 -15 41 -3.94 3.93
 -15 -12 41 3.78 3.88
 15 -12 -41 -4.8 4.17
 15 12 -41 2.16 4.76
 -12 -15 41 4.13 4.55
 -15 -14 41 4.8 4.58
 15 -14 -41 7.26 4.1
 -14 -15 41 6.85 4.47
 15 14 -41 -1.28 5.09
 1 -16 41 0.99 4.63
 -16 1 -41 1.73 2.95
 16 -1 -41 7.05 4.46
 -1 -16 41 -0.04 4.76
 16 1 -41 2.55 4.33
 16 -3 -41 -0.02 4.52
 -16 3 -41 -0.37 2.91
 3 -16 41 3.86 4.78
 -16 -3 -41 -2.04 3.35
 16 3 -41 2.01 4.23
 -3 -16 41 0.04 4.69
 5 -16 41 -1.16 4.65
 -16 5 -41 3.28 2.89
 16 -5 -41 1.31 4.27
 -5 -16 41 0.7 4.37
 -16 -5 -41 -0.08 3.27
 16 5 -41 4.53 4.23
 7 -16 41 -7.11 4.49
 16 -7 -41 -4.48 4.03
 -16 -7 -41 4.3 3.37
 16 7 -41 1.09 4.23
 9 -16 41 -0.76 4.37
 16 -9 -41 7.29 4.49
 -16 -9 41 3.24 4.1
 -9 -16 41 -2.01 4.04
 16 9 -41 -1.97 4.39
 11 -16 41 5.77 4.13
 -16 -11 41 3.92 3.85
 16 11 -41 10.24 4.87
 -11 -16 41 7.91 4
 -16 -13 41 -3.2 4.34
 13 -16 41 -1.48 4.03
 16 -13 -41 7.46 4.55
 16 13 -41 4.47 5.09
 -13 -16 41 -2.77 3.93
 -16 -15 41 1.73 4.23
 16 -15 -41 -4.79 3.97
 -15 -16 41 0.34 3.83
 0 -17 41 -1.6 5
 2 -17 41 -1.16 4.72
 17 -2 -41 -0.46 4.32
 -2 -17 41 7.31 4.99
 -17 -2 -41 1.44 3.27
 17 2 -41 5.37 4.22
 17 -4 -41 0.83 4.53
 -17 4 -41 2.07 2.69
 4 -17 41 4.76 4.88
 -4 -17 41 6.49 4.8
 17 4 -41 0.36 4.53
 -17 -4 -41 4.93 3.32
 17 -6 -41 5.85 4.18
 6 -17 41 -1.79 4.51
 -6 -17 41 -0.05 4.28
 17 6 -41 6.94 4.58
 -17 -6 -41 0.84 3.37
 8 -17 41 1.74 4.37
 17 -8 -41 2.6 4.4
 17 8 -41 6.67 4.54
 -17 -8 -41 3.47 3.33
 -8 -17 41 -4.98 4.68
 17 -10 -41 1.63 4.19
 10 -17 41 -5.46 4.27
 17 10 -41 7 4.66
 -10 -17 41 10.67 4.65
 17 -12 -41 -3.35 4.27
 12 -17 41 -6.43 4.06
 -17 -12 41 -0.42 4.25
 17 12 -41 6.02 5.03
 -12 -17 41 -1.07 4.18
 17 -14 -41 -4.7 4.4
 -17 -14 41 -1.67 4.29
 -14 -17 41 -1.49 4.31
 17 14 -41 -0.06 5.52
 18 -1 -41 -0.82 4.05
 1 -18 41 5.22 4.99
 -1 -18 41 8.35 4.73
 18 1 -41 2.84 3.97
 18 -3 -41 6.23 4.33
 3 -18 41 9.13 4.8
 18 3 -41 0.87 4.15
 -18 -3 -41 5.51 3.34
 -3 -18 41 3.65 4.97
 18 -5 -41 -2.19 4.22
 5 -18 41 1.87 4.82
 -5 -18 41 -1.16 4.73
 18 5 -41 4.28 4.19
 18 -7 -41 -1.84 4.11
 7 -18 41 2.51 4.63
 18 7 -41 1.64 4.35
 -7 -18 41 -2.36 4.31
 -18 -7 -41 4.68 3.4
 18 -9 -41 9.75 4.38
 9 -18 41 -2.28 4.49
 18 9 -41 8.04 4.54
 -9 -18 41 2.79 4.26
 -18 -11 41 -4.05 4.47
 11 -18 41 -2.76 4.24
 18 -11 -41 0.72 4.39
 -11 -18 41 -5.16 4.41
 18 11 -41 5.14 4.81
 -18 -13 41 10.46 4.55
 13 -18 41 3.47 4.18
 18 -13 -41 1.74 4.34
 18 13 -41 8.36 5.09
 -13 -18 41 0.84 4.42
 19 0 -41 1.1 3.91
 0 -19 41 9.65 4.88
 2 -19 41 -7.65 5.08
 19 -2 -41 0.89 4.11
 19 2 -41 -3.28 3.99
 -2 -19 41 -6 4.83
 4 -19 41 -9.14 4.83
 19 -4 -41 8.28 4.46
 -4 -19 41 -0.58 5.14
 19 -6 -41 -1.2 4.02
 6 -19 41 -3.64 4.6
 -6 -19 41 0.44 4.53
 19 6 -41 -2.85 4.18
 -19 -6 -41 2.26 3.29
 19 -8 -41 6.62 4.44
 8 -19 41 6.92 4.51
 19 8 -41 0.56 4.34
 -8 -19 41 2.42 4.88
 10 -19 41 6.04 4.39
 19 -10 -41 2.16 4.49
 -19 -10 41 0.85 4.46
 -10 -19 41 0.35 4.36
 19 10 -41 3 4.61
 19 -12 -41 -0.89 4.57
 12 -19 41 -5.03 4.18
 -19 -12 41 2.54 4.45
 19 12 -41 1.94 5.21
 -12 -19 41 2.54 4.12
 20 -1 -41 1.98 4.01
 1 -20 41 0.22 4.88
 20 1 -41 9.97 4.01
 -1 -20 41 2.69 4.9
 20 -3 -41 1.99 4.41
 3 -20 41 -5.08 5.07
 20 3 -41 -4.12 4.29
 -3 -20 41 -1.97 4.93
 5 -20 41 -2.67 4.84
 20 -5 -41 0.18 4.15
 20 5 -41 6.94 4.44
 -5 -20 41 3.92 4.96
 20 -7 -41 4.08 4.33
 7 -20 41 -2 4.76
 -20 -7 -41 0.87 3.32
 -7 -20 41 3.66 4.52
 20 7 -41 9.47 4.64
 20 -9 -41 1.89 4.09
 9 -20 41 1.06 4.48
 -20 -9 -41 3.01 3.56
 -9 -20 41 -2.02 4.19
 20 9 -41 6.3 5.03
 11 -20 41 6.87 4.38
 20 -11 -41 -2.42 4.18
 -11 -20 41 4.86 4.4
 20 11 -41 0.98 4.85
 0 -21 41 7.3 4.9
 21 0 -41 -0.35 3.97
 2 -21 41 8.81 5.09
 21 -2 -41 -6.97 4.13
 -2 -21 41 0.98 4.91
 21 2 -41 2.06 4.31
 4 -21 41 4.14 5
 21 -4 -41 3.28 4.34
 -4 -21 41 -7.49 5.14
 21 4 -41 0.41 4.55
 21 -6 -41 1.74 4.15
 6 -21 41 -5.56 4.88
 -6 -21 41 -2.39 4.4
 21 6 -41 -2.01 4.65
 8 -21 41 -8.98 4.61
 21 -8 -41 -2.4 4.13
 -8 -21 41 -9.49 4.71
 21 8 -41 0.61 4.51
 22 -1 -41 2.81 4.02
 1 -22 41 5.41 5.28
 22 1 -41 7.68 4.29
 3 -22 41 1.85 5.27
 22 -3 -41 -8.46 4.33
 22 3 -41 8.9 4.65
 -3 -22 41 0.74 5.3
 22 -5 -41 4.17 4.13
 22 5 -41 -2.43 4.46
 -5 -22 41 1.53 4.76
 0 0 -42 -0.05 3.42
 -1 -1 -42 0.91 3.59
 1 -1 -42 1.52 3.94
 -1 1 -42 4.84 3.45
 1 1 -42 3.84 3.64
 0 2 -42 73.16 4.91
 0 -2 -42 69.92 4.98
 -2 0 -42 71.36 6.01
 -2 -2 -42 1.06 3.46
 2 2 -42 -0.27 3.92
 2 -2 -42 -1.9 3.67
 3 -1 -42 6.93 3.76
 1 3 -42 0.31 3.5
 -1 -3 -42 2.39 3.62
 3 1 -42 5.26 3.61
 -1 3 -42 7.45 3.4
 1 -3 -42 4.4 4.06
 3 3 -42 7.51 3.57
 3 -3 -42 1.14 3.89
 0 4 -42 78.32 6.33
 4 0 -42 82.58 5.37
 0 -4 -42 88.42 5.58
 2 4 -42 3.13 3.67
 -2 -4 -42 1.67 3.71
 4 -2 -42 -4.92 3.74
 2 -4 -42 9.43 4.18
 4 2 -42 1.44 3.75
 4 -4 -42 -0.05 4
 4 4 -42 -4.96 3.54
 5 -1 -42 8.82 3.97
 1 5 -42 6.27 4
 -1 -5 -42 1.88 3.75
 1 -5 -42 6.03 4.11
 5 1 -42 3.96 4.22
 5 -3 -42 7.28 3.83
 3 5 -42 13.62 4.1
 3 -5 -42 8.97 4.47
 5 3 -42 10.65 4.06
 5 5 -42 23.13 4.34
 5 -5 -42 20.01 4.62
 0 6 -42 74.9 6.16
 6 0 -42 69.42 5.23
 2 6 -42 0.3 3.71
 -2 -6 -42 -1.13 4.05
 6 -2 -42 6.64 4
 2 -6 -42 -4.05 4.18
 6 2 -42 5.15 3.88
 6 -4 -42 0.58 4.27
 4 6 -42 -4.27 3.63
 6 4 -42 -3.29 3.61
 4 -6 -42 -5.77 4.14
 6 -6 -42 -6.05 4.11
 6 6 -42 -1.56 3.81
 7 -1 -42 2.7 4.1
 -7 1 -42 2.04 3.26
 1 7 -42 4.89 4.01
 -1 -7 -42 4.46 4.23
 1 -7 -42 -0.13 4.04
 -7 -1 -42 7.92 3.11
 -3 -7 -42 4.21 3.64
 3 7 -42 21.02 4.49
 7 -3 -42 15.48 3.98
 -7 -3 -42 19.09 3.41
 7 3 -42 10.5 3.68
 3 -7 -42 10.44 4.28
 5 7 -42 28.43 4.79
 7 -5 -42 30.68 4.53
 5 -7 -42 27.13 4.69
 7 5 -42 17.81 3.93
 7 7 -42 31.56 4.49
 7 -7 -42 35.68 4.87
 0 -8 42 2.26 4.33
 8 0 -42 3.74 4.22
 -8 -2 -42 10.02 3.27
 -2 -8 42 10.14 4.62
 8 2 -42 6.43 3.67
 2 -8 -42 11.92 4.23
 4 8 -42 8.65 3.96
 8 -4 -42 4.19 4.38
 8 4 -42 7.05 3.96
 -8 -4 -42 6.85 3.24
 4 -8 -42 4.59 4.12
 -4 -8 42 5.11 4.02
 6 8 -42 6.17 3.95
 8 -6 -42 2.49 4.51
 -6 -8 42 -1.22 3.97
 6 -8 -42 -0.66 4.14
 8 6 -42 4.51 4.32
 -8 -8 42 2.64 3.97
 8 8 -42 -3.78 4.11
 8 -8 -42 -5.03 4.62
 -9 1 -42 -6.1 3.37
 1 9 -42 1.2 4.11
 1 -9 42 9.83 4.59
 9 1 -42 1.11 3.81
 -1 -9 42 3.06 4.49
 -9 -1 -42 3.02 3.38
 3 -9 42 11.35 4.43
 9 -3 -42 7.49 4.29
 3 9 -42 13.22 4.18
 9 3 -42 3.44 3.95
 -9 -3 -42 8.28 3.24
 -3 -9 42 4.36 4.32
 5 9 -42 17.22 4.61
 9 -5 -42 11.24 4.1
 -9 -5 -42 15.08 3.34
 5 -9 -42 6.02 4.5
 9 5 -42 14 4.29
 7 9 -42 12.95 4.65
 9 -7 -42 8.07 4.41
 9 7 -42 13.95 4.12
 -9 -7 -42 3.99 3.26
 -7 -9 42 5.66 3.97
 7 -9 -42 2.35 4.13
 9 9 -42 -1.1 4.42
 9 -9 -42 -1.76 4.59
 -9 -9 42 0.9 4.49
 -10 0 -42 1.1 3.45
 10 0 -42 3.64 4.21
 0 -10 42 -5.39 4.15
 10 -2 -42 7.85 3.9
 -10 2 -42 -1.6 3.31
 2 -10 42 1.64 4.25
 -2 -10 42 -4.44 4.62
 10 2 -42 4.36 3.71
 -10 -2 -42 2.2 3.47
 4 10 -42 4.21 4.06
 10 -4 -42 0.22 3.96
 4 -10 42 3.29 4.25
 -4 -10 42 -0.84 4.37
 -10 -4 -42 1.17 3.26
 10 4 -42 -2.82 4.09
 10 -6 -42 14.08 4.16
 6 10 -42 3.16 4.2
 6 -10 42 5.02 4.18
 -6 -10 42 6.19 4.24
 -10 -6 -42 11.33 3.43
 -6 10 -42 0.45 3.38
 10 6 -42 9.11 4.09
 -10 -8 42 -1.73 4.49
 10 -8 -42 3.52 4.41
 8 -10 -42 0.18 4.1
 -8 -10 42 3.49 4.59
 10 8 -42 6.76 4.32
 10 10 -42 -4.53 4.25
 10 -10 -42 -7.32 4.27
 -10 -10 42 -1.89 3.81
 1 11 -42 15.17 4.35
 1 -11 42 5.15 4.68
 11 1 -42 11.02 3.99
 3 11 -42 22.23 4.38
 -11 3 -42 14.71 3.56
 11 -3 -42 23.51 4.42
 3 -11 42 25.43 4.58
 -3 -11 42 29.73 4.8
 -11 -3 -42 20.92 3.5
 11 3 -42 21.07 4.24
 5 -11 42 32.14 4.52
 5 11 -42 36.72 4.66
 11 -5 -42 29.66 4.56
 -11 5 -42 28.85 3.81
 -5 -11 42 40.04 5.07
 -11 -5 -42 26.79 3.65
 11 5 -42 23.7 4.25
 11 -7 -42 19.8 4.56
 7 -11 42 20.99 4.33
 7 11 -42 24.22 4.49
 -7 -11 42 32.81 4.73
 11 7 -42 23.73 4.6
 -11 -7 -42 27.15 3.63
 -11 -9 42 10.14 4.01
 9 11 -42 18.73 4.61
 11 -9 -42 13.61 4.65
 9 -11 -42 9.17 4.25
 11 9 -42 15.73 4.35
 11 11 -42 42.69 5.29
 -11 -11 42 46.75 4.94
 0 -12 42 8.64 4.49
 -12 0 -42 9.59 3.48
 12 0 -42 2.44 4.04
 12 -2 -42 -1.72 4.41
 -12 2 -42 7.13 3.42
 2 12 -42 12.83 4.71
 2 -12 42 3.72 4.37
 12 2 -42 1.27 3.72
 -2 -12 42 1.34 4.24
 -12 -2 -42 8.14 3.37
 4 12 -42 10.14 4.43
 4 -12 42 -1.03 4.36
 -12 4 -42 5.19 3.5
 12 4 -42 3.35 4.34
 -4 -12 42 0.05 4.49
 -12 -4 -42 -3.12 3.41
 6 12 -42 6.02 4.94
 6 -12 42 -2.28 4.19
 12 -6 -42 1.88 4.58
 12 6 -42 4.65 4.04
 -12 -6 -42 -3.23 3.28
 -6 -12 42 1.13 4.13
 8 -12 42 0.66 4.1
 12 -8 -42 -4.97 4.32
 8 12 -42 -1.38 4.87
 -12 -8 42 -5.11 3.66
 -8 -12 42 4.31 4.29
 12 8 -42 4.57 4.41
 -12 -10 42 13.88 4.46
 12 -10 -42 8.48 4.71
 10 12 -42 4.63 5.11
 -10 -12 42 12.25 4.18
 12 10 -42 12.22 4.63
 -12 -12 42 -1.08 4.42
 12 -12 -42 -0.67 4.5
 12 12 -42 1.19 4.59
 1 -13 42 -1.74 4.47
 -13 1 -42 2.56 3.25
 13 -1 -42 6.28 4.14
 1 13 -42 4.73 4.49
 -13 -1 -42 1 3.43
 13 1 -42 13.79 4.35
 -1 -13 42 9.9 4.73
 13 -3 -42 21.34 4.19
 -13 3 -42 16.19 3.65
 3 13 -42 21.37 5.13
 3 -13 42 17.02 4.71
 -13 -3 -42 16.55 3.49
 -3 -13 42 17.27 4.47
 5 13 -42 18.92 4.42
 -13 5 -42 16.13 3.47
 13 -5 -42 18.28 4.44
 5 -13 42 18.16 4.5
 13 5 -42 16.25 4.21
 -13 -5 -42 17.84 3.5
 -5 -13 42 11.6 4.53
 7 13 -42 16.11 4.85
 7 -13 42 2.91 4.21
 13 -7 -42 9.86 4.64
 13 7 -42 8.9 4.6
 -7 -13 42 17 4.69
 -13 -7 -42 6.84 3.41
 13 -9 -42 3.84 4.33
 -13 -9 42 2.34 4.39
 9 13 -42 9.39 4.89
 9 -13 42 3.97 4.13
 13 9 -42 9.59 4.31
 -9 -13 42 -2.68 3.96
 13 -11 -42 13.42 4.14
 -13 -11 42 18.09 4.62
 11 -13 42 18.67 4.15
 13 11 -42 15.4 4.5
 -11 -13 42 8.62 4.51
 13 13 -42 8.13 4.88
 -13 -13 42 9.22 4.57
 -14 0 -42 -4.55 3.21
 14 0 -42 0.73 3.93
 0 -14 42 -7.1 4.54
 -14 2 -42 4.04 3.22
 14 -2 -42 -4.34 3.89
 2 -14 42 2.27 4.85
 2 14 -42 10.18 4.57
 -14 -2 -42 -1.43 3.33
 -2 -14 42 2.51 4.73
 14 2 -42 5.83 4.16
 14 -4 -42 3.41 3.98
 4 -14 42 0.34 4.55
 4 14 -42 6.19 5.11
 14 4 -42 7.75 4.36
 -4 -14 42 3.84 4.74
 -14 -4 -42 1.42 3.22
 6 14 -42 3.44 4.7
 -14 6 -42 9.33 3.07
 14 -6 -42 11.88 4.4
 6 -14 42 6.78 4.55
 -14 -6 -42 3.56 3.34
 14 6 -42 8.64 4.28
 -6 -14 42 1.66 4.29
 8 14 -42 -0.94 4.79
 14 -8 -42 10.56 4.4
 8 -14 42 -3.01 4.17
 -14 -8 42 -0.9 4.28
 14 8 -42 -0.6 4.22
 -8 -14 42 -2.43 4.59
 14 -10 -42 -2.21 4.74
 10 14 -42 -0.88 4.87
 -14 -10 42 -3.67 4.51
 10 -14 42 0.31 3.99
 -10 -14 42 3.58 3.97
 14 10 -42 7.25 4.57
 12 14 -42 -0.97 4.9
 14 -12 -42 -2.98 4.52
 12 -14 42 -7.46 4
 -14 -12 42 -2.38 4.48
 14 12 -42 3.08 5.13
 -12 -14 42 -2.86 4.28
 14 -14 -42 5.27 4.28
 14 14 -42 4.86 5.5
 -14 -14 42 4.37 4.26
 15 -1 -42 6.49 4.03
 1 -15 42 4.33 4.78
 -15 1 -42 3.63 3.33
 -1 -15 42 -8.25 4.61
 -15 -1 -42 -1.01 3.3
 15 1 -42 -1.91 3.79
 3 -15 42 17.66 4.62
 15 -3 -42 4.59 4
 15 3 -42 7.06 3.93
 -15 -3 -42 9.03 3.37
 -3 -15 42 10.48 4.61
 -15 5 -42 14.22 3.04
 5 -15 42 1.28 4.61
 15 -5 -42 15.23 4.17
 -5 -15 42 7.02 4.85
 15 5 -42 7.98 4.36
 -15 -5 -42 10.94 3.45
 7 -15 42 8.26 4.49
 15 -7 -42 9.4 4.71
 -7 -15 42 2.64 4.57
 15 7 -42 11 4.67
 -15 -7 -42 4.72 3.35
 15 -9 -42 10.32 4.2
 9 -15 42 6.56 4.17
 -15 -9 42 -0.68 4.38
 15 9 -42 0.3 4.59
 -9 -15 42 3.13 4.5
 11 -15 42 11.72 4.05
 -15 -11 42 9.34 4.42
 15 -11 -42 0.57 4.2
 -11 -15 42 2.94 3.98
 15 11 -42 7.08 4.76
 15 -13 -42 5.37 4.14
 13 -15 42 -2.66 3.86
 -15 -13 42 -2.19 4.43
 -13 -15 42 -4.77 3.72
 -15 -15 42 1.84 3.77
 15 -15 -42 -1.2 4.48
 0 -16 42 3.73 4.52
 -16 0 -42 2.4 3.15
 16 0 -42 1.2 4.18
 16 -2 -42 0.09 4.17
 2 -16 42 6.33 4.82
 -16 2 -42 2.78 3.15
 16 2 -42 3.94 4.07
 -2 -16 42 -1.18 4.69
 -16 -2 -42 0 3.35
 -16 4 -42 4.32 2.82
 16 -4 -42 -2.2 3.99
 4 -16 42 2.61 4.57
 -4 -16 42 -1.73 4.37
 -16 -4 -42 -0.3 3.35
 16 -6 -42 0.23 4.13
 6 -16 42 4.3 4.46
 -16 -6 -42 6.81 3.32
 16 6 -42 6.23 4.1
 -6 -16 42 -0.09 4.48
 16 -8 -42 4.53 4.32
 8 -16 42 4.65 4.47
 16 8 -42 -2.26 4.2
 -8 -16 42 5.41 4.65
 16 -10 -42 8.05 4.62
 -16 -10 42 -4.88 4.4
 10 -16 42 -8.34 4.09
 -10 -16 42 6.89 4.72
 16 10 -42 -1.42 4.47
 12 -16 42 -1.81 4.08
 16 -12 -42 2.18 4.61
 -16 -12 42 0.16 4.55
 -12 -16 42 2.22 4.27
 16 12 -42 5 4.76
 16 -14 -42 -1.34 4.21
 -16 -14 42 5.88 4.14
 -14 -16 42 -1.96 4.16
 16 14 -42 -1.78 5.08
 17 -1 -42 -1.24 4.35
 -17 1 -42 4.93 3.07
 1 -17 42 -2.84 4.8
 -1 -17 42 -0.97 4.87
 -17 -1 -42 2.62 3.08
 17 1 -42 -1.49 4.24
 -17 3 -42 4.21 2.75
 17 -3 -42 7.91 4.23
 17 3 -42 4.05 4.57
 -17 -3 -42 1.33 3.31
 -3 -17 42 5.59 4.93
 17 -5 -42 5.42 3.97
 5 -17 42 0.77 4.53
 -5 -17 42 -1.04 4.53
 17 5 -42 7.25 4.59
 -17 -5 -42 2.11 3.34
 7 -17 42 -0.99 4.4
 17 -7 -42 6.99 4.55
 17 7 -42 6.74 4.54
 -7 -17 42 0.12 4.56
 -17 -9 42 -0.44 4.36
 17 -9 -42 -4.91 4.24
 9 -17 42 4.76 4.41
 -9 -17 42 5.28 4.11
 17 9 -42 5.95 4.73
 17 -11 -42 -5.7 4.22
 -17 -11 42 -1.19 4.54
 11 -17 42 -4.51 4.11
 17 11 -42 7.1 5.12
 -11 -17 42 -4.75 4.39
 13 -17 42 2.45 4.11
 -17 -13 42 -0.97 4.24
 17 -13 -42 0.86 4.36
 17 13 -42 10.02 5.43
 -13 -17 42 -9.87 4.37
 0 -18 42 1.42 4.94
 18 0 -42 7.71 4.25
 2 -18 42 0.03 4.8
 18 -2 -42 -0.06 4.39
 -2 -18 42 9.25 4.92
 18 2 -42 2.73 4.1
 -18 -2 -42 0.17 3.09
 18 -4 -42 3.52 4.17
 4 -18 42 14.54 4.74
 -4 -18 42 14.98 5.03
 -18 -4 -42 6.63 3.32
 18 4 -42 0.46 4.26
 18 -6 -42 15.04 4.22
 6 -18 42 7.47 4.59
 18 6 -42 13.57 4.32
 -18 -6 -42 7.75 3.32
 -6 -18 42 6.61 4.36
 8 -18 42 5.55 4.49
 18 -8 -42 5.95 4.12
 -8 -18 42 -0.32 4.81
 -18 -8 -42 1.52 3.31
 18 8 -42 4.76 4.46
 -18 -10 42 -7.7 4.28
 10 -18 42 -3.38 4.42
 18 -10 -42 6.67 4.34
 -10 -18 42 -7.65 4.14
 18 10 -42 11.39 4.64
 18 -12 -42 -9.89 4.32
 -18 -12 42 -0.43 4.28
 12 -18 42 0.6 4.15
 18 12 -42 1.81 4.68
 -12 -18 42 0.89 3.87
 1 -19 42 2.12 4.86
 19 -1 -42 -1.23 4.22
 19 1 -42 0.18 4.01
 -1 -19 42 11.17 4.8
 3 -19 42 4.15 4.75
 19 -3 -42 -1.4 4.33
 19 3 -42 3.16 4.1
 -3 -19 42 -0.53 4.86
 -19 -3 -42 8.49 3.14
 19 -5 -42 -2.29 3.96
 5 -19 42 -0.85 4.77
 -5 -19 42 -10.22 4.77
 -19 -5 -42 7.37 3.36
 19 5 -42 6.84 4.19
 19 -7 -42 -0.22 4.3
 7 -19 42 6.57 4.62
 19 7 -42 -8.44 4.3
 -7 -19 42 9.06 4.23
 9 -19 42 5.47 4.43
 19 -9 -42 -2.6 4.4
 -9 -19 42 1.63 4.41
 19 9 -42 8.17 4.46
 -19 -9 -42 -3.22 3.39
 19 -11 -42 8.46 4.48
 -19 -11 42 -2.19 4.17
 11 -19 42 -4.11 4.28
 -11 -19 42 -1.23 4.49
 20 0 -42 0.02 3.94
 0 -20 42 7.9 4.97
 2 -20 42 -7.54 5.12
 20 -2 -42 6.4 4.42
 -2 -20 42 -1.05 4.9
 20 2 -42 1.46 4.06
 4 -20 42 -2.17 4.84
 20 -4 -42 6.52 4.16
 -4 -20 42 -2.95 5.08
 20 4 -42 1.81 4.37
 6 -20 42 5.54 4.66
 20 -6 -42 -5.26 4.28
 20 6 -42 -9 4.49
 -6 -20 42 -2.18 4.43
 20 -8 -42 8.47 4.1
 8 -20 42 5.8 4.54
 -8 -20 42 2.04 4.85
 20 8 -42 3.41 4.82
 1 -21 42 -1.41 5.12
 21 -1 -42 7.64 4.09
 -1 -21 42 4.23 5.07
 21 1 -42 4.79 4.05
 3 -21 42 -2.18 4.97
 21 -3 -42 -1.84 4.2
 21 3 -42 2.77 4.4
 -3 -21 42 -1.78 5.14
 5 -21 42 0.49 4.82
 -5 -21 42 8.15 4.86
 21 5 -42 0.49 4.68
 21 -7 -42 4.68 4.16
 7 -21 42 9.64 4.72
 -7 -21 42 8.19 4.84
 21 7 -42 17.58 4.57
 22 0 -42 -1.81 4.01
 0 -22 42 -9.86 5.16
 2 -22 42 -3.89 5.12
 22 -2 -42 1.52 4.38
 -2 -22 42 11.24 5.34
 22 2 -42 5.52 4.38
 0 1 -43 98.1 7.24
 1 0 -43 125.73 7.12
 -1 0 -43 125.07 6.81
 -1 -2 -43 87.52 6.46
 2 -1 -43 75.95 5.16
 1 2 -43 89.81 6.38
 1 -2 -43 83.17 6.46
 2 1 -43 76.19 5.08
 -2 -1 -43 92.01 6.08
 3 0 -43 64.18 4.7
 0 3 -43 67.21 4.83
 0 -3 -43 51.81 4.72
 2 3 -43 86.4 6.48
 3 -2 -43 99.95 7.07
 -2 -3 -43 94.57 6.23
 2 -3 -43 90.05 6.69
 3 2 -43 96.73 6.92
 -1 -4 -43 91.79 6.93
 4 -1 -43 93.35 6.77
 1 4 -43 103.2 6.85
 1 -4 -43 104.98 6.89
 4 1 -43 96.05 6.84
 -3 -4 -43 8.51 5.76
 4 -3 -43 14.23 4.02
 3 4 -43 15.49 3.7
 3 -4 -43 17.71 4.37
 4 3 -43 16.19 3.93
 0 -5 -43 131.4 8.2
 5 0 -43 139.28 7.85
 0 5 -43 148.95 7.87
 2 5 -43 194.69 9.25
 5 -2 -43 199.08 9.38
 -2 -5 -43 179.93 9.14
 5 2 -43 204.98 9.29
 2 -5 -43 180.28 9.45
 4 5 -43 38.12 4.38
 5 4 -43 27.23 3.96
 4 -5 -43 40.03 4.68
 6 -1 -43 67.73 5.13
 1 6 -43 78.61 6.19
 6 1 -43 60.04 4.85
 1 -6 -43 69.06 5.08
 6 -3 -43 -6.96 3.74
 -3 -6 -43 -3.4 3.45
 3 6 -43 6.92 3.93
 3 -6 -43 6.22 4.2
 6 3 -43 -0.7 3.53
 6 -5 -43 1.56 4.24
 5 6 -43 -1.81 3.8
 5 -6 -43 6.63 4.2
 6 5 -43 -2.41 3.88
 7 0 -43 204.42 10.03
 0 -7 -43 209.83 10.15
 -7 0 -43 214.13 9.53
 0 7 -43 233.94 10.26
 7 -2 -43 238.69 10.68
 -2 -7 -43 229.16 10.78
 -7 2 -43 230.07 10.08
 2 7 -43 214.49 10.83
 -7 -2 -43 248.1 10.04
 7 2 -43 246.03 10.71
 2 -7 -43 213.51 10.82
 7 -4 -43 68.49 5.23
 4 7 -43 57.15 5.09
 7 4 -43 61.57 4.91
 4 -7 -43 56.32 5.37
 7 -6 -43 -3.99 4.38
 6 7 -43 -1.47 4.39
 7 6 -43 9.29 4.34
 6 -7 -43 -0.37 4.37
 8 -1 -43 35.1 4.53
 -8 1 -43 22 3.65
 -8 -1 -43 25.01 3.6
 1 -8 -43 25.65 4.22
 8 1 -43 26.09 3.96
 3 8 -43 6.76 4.05
 8 -3 -43 3.78 4.08
 -3 -8 43 9.52 4.24
 -8 -3 -43 5.04 3.19
 8 3 -43 3.42 4.13
 3 -8 -43 12.94 4.1
 5 8 -43 2.71 3.96
 5 -8 -43 7.1 4.24
 -8 -5 -43 4.53 3.19
 -5 -8 43 13.97 4.42
 8 5 -43 3.77 4.02
 7 8 -43 5.12 3.97
 8 -7 -43 4.22 4.15
 8 7 -43 1.61 3.98
 7 -8 -43 13.38 4.65
 -7 -8 43 3.95 4.27
 0 -9 43 14.1 4.3
 -9 0 -43 12.31 3.54
 9 0 -43 21.66 4.05
 2 9 -43 22.73 4.26
 2 -9 43 15.85 4.42
 9 -2 -43 23.34 4.1
 -9 -2 -43 27.94 3.65
 9 2 -43 31.24 4.31
 -2 -9 43 26.42 4.66
 9 -4 -43 9.35 4.38
 -4 -9 43 -0.7 3.93
 -9 -4 -43 5.77 3.29
 4 -9 -43 8.46 4.27
 9 4 -43 -0.04 3.89
 6 9 -43 26.25 4.62
 6 -9 -43 21.67 4.26
 -6 -9 43 24.41 4.22
 -9 -8 43 2.91 3.92
 9 -8 -43 1.9 4.21
 8 9 -43 7.17 4.49
 8 -9 -43 2.34 4.6
 -8 -9 43 8.75 3.96
 9 8 -43 1.9 4.48
 10 -1 -43 5.95 4.08
 1 -10 43 8.37 4.45
 1 10 -43 11.89 4.16
 -10 1 -43 2.37 3.37
 -10 -1 -43 1.89 3.38
 10 1 -43 5.6 3.81
 -1 -10 43 3.75 4.34
 10 -3 -43 29.48 4.77
 3 10 -43 31.07 4.57
 3 -10 43 37.54 4.73
 10 3 -43 30.34 4.42
 -10 -3 -43 35.14 3.72
 -3 -10 43 38.25 4.65
 5 -10 43 35.62 4.5
 10 -5 -43 33.6 4.75
 5 10 -43 28.77 4.44
 -5 -10 43 25.3 4.25
 10 5 -43 26.05 4.13
 10 -7 -43 38.06 5
 7 10 -43 33.05 4.66
 10 7 -43 34.61 4.75
 7 -10 -43 28.43 4.3
 -7 -10 43 35.87 4.42
 -10 -7 -43 28.14 3.65
 10 -9 -43 -0.62 4.2
 -10 -9 43 7.74 4.52
 9 10 -43 11.31 4.22
 9 -10 -43 9.4 4.55
 -9 -10 43 9.72 4.55
 0 11 -43 139.78 7.72
 0 -11 43 116.11 8.3
 -11 0 -43 136.95 7.25
 11 0 -43 135.47 7.89
 -11 2 -43 119.21 6.85
 11 -2 -43 123 7.44
 2 -11 43 112.78 7.91
 2 11 -43 110.32 7.87
 -11 -2 -43 133.12 6.88
 11 2 -43 123.44 7.36
 -2 -11 43 102.36 7.76
 -11 4 -43 17.88 3.9
 11 -4 -43 17.41 4.06
 4 -11 43 16.74 4.36
 4 11 -43 23.31 4.7
 -11 -4 -43 20.41 3.53
 11 4 -43 13.78 3.82
 6 11 -43 0.88 4.13
 6 -11 43 -0.53 4.27
 11 -6 -43 9.29 4.42
 -11 -6 -43 4.3 3.43
 -6 -11 43 8.47 4.79
 11 6 -43 6.54 4.52
 11 -8 -43 5.82 4.58
 8 11 -43 12.16 4.29
 -11 -8 43 12.45 4.53
 -8 -11 43 9.27 4.42
 11 8 -43 11.75 4.04
 11 -10 -43 43.01 4.77
 10 11 -43 38.09 4.86
 11 10 -43 40.1 4.86
 -10 -11 43 31.38 4.35
 10 -11 -43 35.12 4.62
 12 -1 -43 11.75 3.98
 -12 1 -43 13.91 3.38
 1 -12 43 8.38 4.69
 -12 -1 -43 7.82 3.51
 12 1 -43 12.48 3.81
 -1 -12 43 7.05 4.34
 12 -3 -43 -6.76 3.9
 -12 3 -43 6.77 3.46
 3 -12 43 -5.58 4.53
 -12 -3 -43 -0.57 3.42
 12 3 -43 9.01 4.27
 -3 -12 43 -0.54 4.39
 5 12 -43 11.53 4.94
 12 -5 -43 9.07 4.08
 -12 5 -43 1.69 3.44
 5 -12 43 -1.17 4.16
 -12 -5 -43 5.03 3.43
 -5 -12 43 -2.96 4.37
 12 5 -43 -3.9 3.95
 7 -12 43 1.52 4.13
 12 -7 -43 4.62 4.39
 7 12 -43 -2.54 4.84
 -12 -7 -43 -1.35 3.46
 12 7 -43 5.04 4.26
 -7 -12 43 6.52 4.02
 9 -12 43 12.08 4.12
 -12 -9 43 3.64 3.75
 12 -9 -43 11.91 4.52
 9 12 -43 14.1 4.86
 12 9 -43 20.63 4.6
 -9 -12 43 10.11 4.69
 11 12 -43 5.06 5.01
 -12 -11 43 -4.12 3.96
 12 -11 -43 -6.02 4.46
 11 -12 -43 -4.24 4.07
 12 11 -43 7.86 4.65
 0 -13 43 28.95 4.99
 13 0 -43 23.59 4.45
 -13 0 -43 30.15 3.68
 2 -13 43 27.83 4.69
 13 -2 -43 27.69 4.54
 2 13 -43 33.1 4.84
 -13 2 -43 24.55 3.6
 -2 -13 43 22.11 4.71
 -13 -2 -43 23.77 3.62
 13 2 -43 24.64 4.06
 4 13 -43 0.18 4.48
 4 -13 43 1.72 4.37
 -13 4 -43 0.07 3.4
 13 -4 -43 8.62 4.32
 -4 -13 43 -4.54 4.28
 -13 -4 -43 1.47 3.24
 13 4 -43 5.16 3.87
 6 -13 43 -0.21 4.4
 -13 6 -43 1.79 3.18
 13 -6 -43 6.93 4.19
 6 13 -43 11.1 4.86
 -6 -13 43 -3.25 4.56
 -13 -6 -43 -2.52 3.3
 13 6 -43 -3.15 4.52
 8 13 -43 -5.91 4.95
 13 -8 -43 2.09 4.44
 8 -13 43 2.4 4.05
 13 8 -43 1.2 4.36
 -8 -13 43 -3.79 4.51
 10 13 -43 14.6 5.17
 13 -10 -43 14.56 4.38
 -13 -10 43 13.37 4.26
 10 -13 43 9.51 4.07
 13 10 -43 18.49 4.46
 -10 -13 43 14.57 4.14
 -13 -12 43 0.35 4.2
 13 -12 -43 -4.09 4.08
 12 13 -43 -3.57 4.76
 -12 -13 43 -0.66 3.75
 12 -13 -43 -9.29 4.2
 13 12 -43 -1.98 4.48
 14 -1 -43 6.05 4.28
 1 14 -43 13.29 4.72
 -14 1 -43 5.4 3.29
 1 -14 43 3.24 4.52
 -14 -1 -43 9.03 3.46
 14 1 -43 4.12 4.39
 -1 -14 43 2.65 4.83
 3 -14 43 -0.18 4.44
 -14 3 -43 3.78 3.36
 3 14 -43 -0.63 4.8
 14 -3 -43 5.57 4.34
 -3 -14 43 1.36 4.79
 -14 -3 -43 1.42 3.42
 14 3 -43 -6.73 4.11
 -14 5 -43 7.06 3.19
 5 14 -43 9.24 4.71
 5 -14 43 10.42 4.44
 14 -5 -43 6.99 4.3
 -5 -14 43 6.84 4.76
 14 5 -43 4.46 4.19
 -14 -5 -43 8.78 3.37
 7 -14 43 5.09 4.34
 14 -7 -43 -2.87 4.07
 7 14 -43 7.43 4.8
 -7 -14 43 5.24 4.24
 14 7 -43 15.66 4.05
 -14 -7 -43 9.7 3.35
 9 14 -43 20.25 5.24
 14 -9 -43 14.87 4.61
 9 -14 43 14.77 4.18
 -14 -9 43 8.08 4.23
 14 9 -43 21.01 4.42
 -9 -14 43 17.44 4.72
 -14 -11 43 6.77 4.26
 11 -14 43 -3.09 3.92
 11 14 -43 6.14 4.99
 14 -11 -43 1.7 4.64
 14 11 -43 5.81 4.66
 -11 -14 43 -0.8 4.11
 -14 -13 43 3.35 3.97
 13 14 -43 -4.63 4.96
 14 -13 -43 3.17 4.36
 -13 -14 43 -2.16 3.76
 14 13 -43 0.75 5.05
 -15 0 -43 4.24 3.15
 15 0 -43 7.9 3.92
 15 -2 -43 16.89 4.14
 -15 2 -43 22.48 3.51
 2 -15 43 15.08 4.63
 15 2 -43 14.7 3.92
 -2 -15 43 5.01 4.67
 -15 -2 -43 14.36 3.58
 15 -4 -43 -1.37 4.32
 4 -15 43 -2.39 4.56
 -15 4 -43 2.72 3.12
 -15 -4 -43 3.11 3.36
 15 4 -43 1.01 4.09
 -4 -15 43 8.22 4.65
 15 -6 -43 -7.01 4.17
 -15 6 -43 -5.06 3.04
 6 -15 43 -4.69 4.37
 15 6 -43 -3.69 4.5
 -15 -6 -43 -0.47 3.34
 -6 -15 43 -9.27 4.76
 8 15 -43 -5.32 4.93
 15 -8 -43 -5.6 4.31
 15 8 -43 7.91 4.7
 -8 -15 43 -4.85 4.08
 -15 -8 -43 -0.3 3.38
 -15 -10 43 8.48 4.3
 10 -15 43 11.82 4.25
 10 15 -43 21.71 5.3
 15 -10 -43 12.67 4.27
 -10 -15 43 21.15 4.76
 15 10 -43 22.34 4.79
 12 -15 43 -5.1 4.12
 -15 -12 43 4.08 4.28
 15 -12 -43 -4.25 4.19
 15 12 -43 1.99 5.14
 -12 -15 43 9.1 4.46
 -15 -14 43 4.04 3.75
 15 -14 -43 -2.87 4.39
 -14 -15 43 3.15 4.2
 15 14 -43 -2.01 5.52
 -16 1 -43 5.99 3.1
 1 -16 43 6.81 4.65
 16 -1 -43 5.12 3.99
 -1 -16 43 5.14 4.55
 -16 -1 -43 6.77 3.2
 16 1 -43 -2.58 3.88
 3 -16 43 7.74 4.77
 16 -3 -43 2.94 3.99
 -16 3 -43 5.45 3.13
 16 3 -43 4.78 4
 -16 -3 -43 11.11 3.46
 -3 -16 43 2.25 4.51
 -16 5 -43 12.88 3.02
 5 -16 43 15.58 4.75
 16 -5 -43 23.09 4.61
 -16 -5 -43 15.51 3.39
 16 5 -43 17.24 4.2
 -5 -16 43 13.22 4.39
 16 -7 -43 14.87 4.17
 7 -16 43 24.94 4.77
 -7 -16 43 31.55 5.09
 16 7 -43 24.61 4.3
 -16 -7 -43 17.4 3.56
 9 -16 43 33.25 4.54
 -16 -9 43 22.85 4.5
 16 -9 -43 31.08 4.74
 16 9 -43 27.38 4.49
 16 -11 -43 2.91 4.61
 11 -16 43 14.14 4.17
 -16 -11 43 7.39 4.33
 -11 -16 43 15.12 4.46
 16 11 -43 13.36 4.65
 16 -13 -43 0.72 4.3
 -16 -13 43 -0.53 3.87
 13 -16 43 -0.19 4.29
 -13 -16 43 -2.51 4.43
 17 0 -43 9.13 4.18
 0 -17 43 1.94 4.74
 -17 0 -43 1.28 3.1
 2 -17 43 -3.42 4.57
 17 -2 -43 5.06 4.08
 -17 -2 -43 6.64 3.23
 17 2 -43 11.28 4.21
 -2 -17 43 -0.74 4.83
 4 -17 43 15.75 4.72
 -17 4 -43 12.55 2.78
 17 -4 -43 6.44 4.07
 -17 -4 -43 12.04 3.44
 17 4 -43 18.77 4.58
 -4 -17 43 17.98 4.82
 6 -17 43 13.38 4.69
 17 -6 -43 18.58 4.43
 17 6 -43 16.05 4.66
 -6 -17 43 7.04 4.28
 -17 -6 -43 11.2 3.56
 8 -17 43 6.74 4.43
 17 -8 -43 -1.82 4.23
 -8 -17 43 -3.25 4.67
 17 8 -43 2.63 4.68
 -17 -8 -43 1.16 3.35
 10 -17 43 -0.3 4.24
 17 -10 -43 1.15 4.17
 -17 -10 43 -0.5 4.09
 -10 -17 43 3.7 4.12
 17 10 -43 9 5.02
 -17 -12 43 -4.32 4.07
 12 -17 43 4.95 4.13
 17 -12 -43 4.41 4.24
 17 12 -43 10.32 5.1
 -12 -17 43 -0.88 3.86
 1 -18 43 4.94 4.84
 18 -1 -43 2.16 4.2
 -1 -18 43 3.06 4.97
 -18 -1 -43 3.33 3.06
 18 1 -43 -1.02 4.3
 3 -18 43 11.63 4.66
 18 -3 -43 10.74 4.02
 -18 -3 -43 11.47 3.37
 18 3 -43 6.34 4.33
 -3 -18 43 13.97 5.04
 5 -18 43 9.78 4.77
 18 -5 -43 6.33 4.33
 18 5 -43 20.68 4.41
 -5 -18 43 16.01 4.82
 -18 -5 -43 12.48 3.43
 18 -7 -43 15.24 4.09
 7 -18 43 15.74 4.68
 -7 -18 43 14.1 4.32
 -18 -7 -43 23.78 3.57
 9 -18 43 19.06 4.57
 18 -9 -43 20.06 4.36
 -18 -9 -43 16.67 3.55
 -9 -18 43 13.92 4.62
 18 -11 -43 10.9 4.41
 11 -18 43 18.04 4.24
 18 11 -43 15.08 4.73
 19 0 -43 3.94 4.25
 0 -19 43 8.52 4.96
 2 -19 43 3.71 4.78
 19 -2 -43 2.68 4.2
 -2 -19 43 2.77 4.87
 19 2 -43 -4.15 4.04
 4 -19 43 6.09 4.63
 19 -4 -43 7.73 4.04
 19 4 -43 2.86 4.12
 -19 -4 -43 3.04 3.31
 -4 -19 43 3.71 4.95
 6 -19 43 -6.32 4.53
 19 -6 -43 -5.35 4.13
 -19 -6 -43 3.13 3.33
 19 6 -43 -0.18 4.17
 -6 -19 43 6.27 4.44
 8 -19 43 8.08 4.48
 19 -8 -43 5.23 4.35
 -19 -8 -43 0.98 3.37
 19 8 -43 7.88 4.47
 -8 -19 43 4.07 4.83
 10 -19 43 13.21 4.49
 19 -10 -43 4.59 4.34
 19 10 -43 13.31 4.99
 1 -20 43 3.54 5.03
 20 -1 -43 -0.83 4.34
 -1 -20 43 2.52 4.81
 20 1 -43 6.98 4.05
 20 -3 -43 4.09 4.13
 3 -20 43 8.22 4.84
 20 3 -43 7.92 4.17
 -3 -20 43 6.97 4.98
 20 -5 -43 13.24 4.44
 5 -20 43 19.26 4.87
 -5 -20 43 16.18 4.86
 7 -20 43 20.17 4.72
 -7 -20 43 17.18 4.39
 20 7 -43 26.46 4.88
 21 0 -43 71.25 5.14
 0 -21 43 64.8 6.02
 2 -21 43 79.19 6.1
 21 -2 -43 67.07 5.27
 -2 -21 43 70.45 6.1
 -4 -21 43 61.94 5.88
 21 4 -43 67.19 5.38
 0 0 -44 26.7 3.86
 1 1 -44 -7.35 3.93
 -1 -1 -44 -2.14 3.47
 -1 1 -44 -2.49 3.62
 1 -1 -44 -0.64 3.88
 2 0 -44 8.12 3.73
 0 2 -44 17.88 3.69
 0 -2 -44 16.15 3.85
 2 -2 -44 15.97 4.09
 -2 -2 -44 23.05 3.62
 1 3 -44 2.49 3.7
 3 -1 -44 3.69 3.67
 -1 -3 -44 4.07 3.67
 1 -3 -44 9.57 3.99
 -1 3 -44 9.56 3.35
 3 1 -44 5.25 3.92
 3 3 -44 -2.56 3.69
 3 -3 -44 1.44 3.9
 0 4 -44 15.38 3.85
 4 0 -44 14.98 4.06
 4 -2 -44 -0.63 3.89
 -2 -4 -44 -2.62 3.7
 2 4 -44 3.69 3.54
 2 -4 -44 -0.73 4.08
 4 2 -44 -1.43 3.97
 4 4 -44 -0.54 3.78
 4 -4 -44 -5.56 4.26
 -1 -5 -44 -3.84 4.09
 5 -1 -44 2.38 4.06
 1 5 -44 7.25 3.72
 5 1 -44 0.53 3.74
 1 -5 -44 -3.83 4.03
 5 -3 -44 3.17 3.89
 -3 -5 -44 -3.5 3.51
 3 5 -44 -2.37 3.8
 5 3 -44 6.18 3.46
 3 -5 -44 -1.58 4.21
 5 -5 -44 3 4.12
 5 5 -44 6.34 3.84
 6 0 -44 8.72 3.88
 0 6 -44 12.63 3.9
 6 -2 -44 6.49 4.11
 -2 -6 -44 -0.84 3.72
 2 6 -44 2.57 3.89
 6 2 -44 -0.07 3.63
 2 -6 -44 4.76 4.28
 4 6 -44 0.37 3.83
 6 -4 -44 4.94 4.45
 4 -6 -44 -1.61 4.22
 6 4 -44 1.07 3.91
 6 -6 -44 4.51 4.49
 6 6 -44 2.33 4.06
 1 7 -44 4.01 3.91
 -1 -7 -44 0.17 3.91
 -7 1 -44 -0.08 3.33
 7 -1 -44 7.25 4.14
 7 1 -44 -3.24 3.68
 -7 -1 -44 -1.5 3.19
 1 -7 -44 -0.46 4.13
 3 7 -44 2.98 4.21
 7 -3 -44 1.76 3.83
 7 3 -44 4.62 4.01
 3 -7 -44 -0.41 4.22
 7 -5 -44 -2.18 4.09
 5 7 -44 1.11 4.16
 7 5 -44 5.5 3.83
 5 -7 -44 -2.49 4.17
 7 -7 -44 2.12 4.2
 7 7 -44 5.32 4.12
 8 0 -44 -0.41 3.89
 0 -8 -44 4.31 4.36
 2 8 -44 2.72 4.33
 8 -2 -44 -3.07 3.97
 -2 -8 -44 1.98 3.95
 8 2 -44 -3.93 4.04
 2 -8 -44 -1.92 4.37
 -8 -2 -44 -5.46 3.24
 4 8 -44 0.38 4
 8 -4 -44 -1.48 4.33
 -4 -8 44 -3.93 4.5
 8 4 -44 4.99 3.77
 4 -8 -44 -6.46 4.45
 -8 -4 -44 2.49 3.12
 8 -6 -44 -4.02 4.51
 6 8 -44 0.85 4.09
 8 6 -44 2.58 4.08
 -6 -8 44 0.05 4.59
 6 -8 -44 1.19 4.62
 -8 -8 44 3.01 4.39
 8 8 -44 -5.03 4.19
 8 -8 -44 5.06 4.19
 1 -9 44 -1.24 4.47
 -9 1 -44 -4.14 3.4
 9 -1 -44 1.94 4.21
 1 9 -44 1.78 4.05
 -1 -9 44 -1.92 4.73
 9 1 -44 -3.9 4.03
 -9 -1 -44 -5.92 3.32
 3 9 -44 -5.81 4.26
 9 -3 -44 -0.73 3.96
 3 -9 -44 -8.06 3.86
 -3 -9 44 5.19 4.11
 9 3 -44 0.5 3.79
 -9 -3 -44 -0.05 3.21
 9 -5 -44 5.48 4.27
 5 9 -44 -2.64 4.49
 -5 -9 44 -2.31 4.26
 9 5 -44 -3.64 3.92
 5 -9 -44 2.72 4.13
 -9 -5 -44 3.84 3.33
 9 -7 -44 -1.06 4.5
 7 9 -44 7.25 4.55
 -9 -7 -44 4.85 3.23
 7 -9 -44 2.54 4.57
 9 7 -44 -5.15 4.02
 -7 -9 44 5.15 4.14
 9 9 -44 3.32 4.48
 9 -9 -44 7.17 4.2
 10 0 -44 -2.26 3.93
 0 -10 44 -4.94 4.19
 -10 0 -44 -4.33 3.46
 2 -10 44 3.09 4.25
 10 -2 -44 1.56 3.78
 2 10 -44 9.11 4.45
 -2 -10 44 -4.68 4.46
 10 2 -44 4.23 4.09
 -10 -2 -44 -2.61 3.34
 4 10 -44 -0.14 4.04
 10 -4 -44 -7.61 4.07
 4 -10 44 8.32 4.34
 -10 -4 -44 1.26 3.28
 10 4 -44 -3.14 3.84
 -4 -10 44 1.24 4.07
 10 -6 -44 6.89 4.05
 6 10 -44 6.79 4.28
 -10 -6 -44 6.21 3.35
 10 6 -44 4.88 4.1
 10 -8 -44 3.76 4.93
 8 10 -44 -4.59 4.15
 10 8 -44 -5.4 4.23
 8 -10 -44 -1.72 4.52
 -8 -10 44 -0.87 4.03
 10 -10 -44 3.22 4.19
 10 10 -44 8.39 4.23
 -10 -10 44 9.09 4.46
 -11 1 -44 1.66 3.5
 11 -1 -44 5.31 4.21
 1 11 -44 8.01 4.17
 -11 -1 -44 2.13 3.44
 -1 -11 44 4.65 4.43
 -11 3 -44 -4.84 3.47
 3 -11 44 -8.66 4.46
 3 11 -44 0.82 4.6
 11 -3 -44 4.79 4.46
 -3 -11 44 -1.85 4.55
 11 3 -44 -2.57 3.62
 -11 -3 -44 -3.34 3.41
 5 -11 44 -9.28 4.19
 5 11 -44 -1.3 4.17
 -5 -11 44 -0.83 4.47
 11 5 -44 -4.33 4.39
 -11 -5 -44 -4.37 3.44
 7 11 -44 -3.9 4.03
 11 -7 -44 3.29 4.15
 -7 -11 44 0.9 4.64
 -11 -7 -44 8.34 3.5
 11 7 -44 0.56 4.21
 -11 -9 44 -5.55 4.51
 9 11 -44 10.34 4.3
 11 -9 -44 5.18 4.82
 11 9 -44 1.06 4.13
 9 -11 -44 -0.02 4.33
 -9 -11 44 -2.23 4.29
 11 -11 -44 -7.79 4.49
 -11 -11 44 -3.69 4.18
 11 11 -44 1.04 4.72
 0 -12 44 -5.12 4.47
 -12 0 -44 -2.41 3.43
 12 0 -44 2.06 4.18
 12 -2 -44 1.29 4.01
 2 12 -44 0.41 4.33
 -12 2 -44 1.86 3.42
 2 -12 44 -3.07 4.24
 -2 -12 44 -4.83 4.33
 -12 -2 -44 -1.28 3.46
 12 2 -44 0.31 4.3
 4 12 -44 10.1 4.71
 -12 4 -44 2.52 3.56
 12 -4 -44 6.68 4.28
 4 -12 44 0.74 4.21
 -4 -12 44 3.91 4.55
 -12 -4 -44 -3.25 3.31
 12 4 -44 -0.23 3.99
 12 -6 -44 -5.56 4.44
 6 12 -44 9.24 4.62
 6 -12 44 -6.29 4.3
 12 6 -44 -0.05 4.06
 -12 -6 -44 2.43 3.4
 -6 -12 44 -8.55 4.29
 8 -12 44 -5.8 4.1
 8 12 -44 6.4 4.64
 -12 -8 -44 0.13 3.38
 12 8 -44 3.73 4.34
 -8 -12 44 -2.59 3.96
 -12 -10 44 -0.52 3.76
 12 -10 -44 -0.42 4.32
 12 10 -44 2.47 4.75
 -10 -12 44 0.76 4.58
 10 -12 -44 -5.48 3.99
 12 -12 -44 -0.56 4.22
 -12 -12 44 0.84 3.82
 12 12 -44 6.23 4.94
 1 13 -44 10.35 4.21
 -13 1 -44 -1.85 3.33
 1 -13 44 -7.78 4.34
 -13 -1 -44 8.61 3.5
 13 1 -44 3.19 3.74
 -1 -13 44 -6.82 4.67
 3 13 -44 -0.87 4.49
 13 -3 -44 -6.83 3.8
 -13 3 -44 -3.62 3.6
 3 -13 44 -4.73 4.42
 13 3 -44 3.7 3.8
 -3 -13 44 -5.66 4.3
 -13 -3 -44 -5.36 3.37
 5 13 -44 5.9 4.68
 13 -5 -44 -7.68 4.05
 -13 5 -44 2.02 3.42
 5 -13 44 0.39 4.46
 -5 -13 44 -1.5 4.23
 13 5 -44 -0.1 4.35
 -13 -5 -44 5.66 3.37
 13 -7 -44 0.95 4.47
 7 -13 44 -1.51 4.17
 7 13 -44 9.94 4.93
 -13 -7 -44 1.28 3.37
 13 7 -44 1.9 4.48
 -7 -13 44 -9.45 4.52
 13 -9 -44 1.53 4.46
 9 13 -44 4.8 4.98
 13 9 -44 8.39 4.45
 13 -11 -44 6.92 4.3
 -13 -11 44 -5.84 3.68
 11 13 -44 1.76 5.08
 -11 -13 44 0.06 4.58
 11 -13 -44 -5.65 4.51
 13 11 -44 4.26 4.41
 13 -13 -44 -0.35 4.39
 -13 -13 44 1.85 3.87
 14 0 -44 5.38 4.23
 -14 0 -44 7.71 3.36
 0 -14 44 4.1 4.38
 2 14 -44 7.09 4.56
 -14 2 -44 3.95 3.31
 14 -2 -44 4.07 4.1
 2 -14 44 1.54 4.61
 -2 -14 44 -2.84 4.5
 14 2 -44 -4.09 4
 -14 -2 -44 0.14 3.43
 14 -4 -44 7.91 4.01
 4 -14 44 4.59 4.51
 4 14 -44 5.81 4.67
 -14 4 -44 4.96 3.38
 14 4 -44 -4.48 4.05
 -4 -14 44 -0.63 4.59
 -14 -4 -44 1.77 3.38
 6 -14 44 -5 4.31
 6 14 -44 8.8 4.89
 14 -6 -44 -1.82 4.19
 -14 6 -44 3.44 3.14
 -6 -14 44 -4.01 4.37
 14 6 -44 2.43 4.11
 -14 -6 -44 0.08 3.35
 8 14 -44 -1.2 5.2
 14 -8 -44 -0.27 4.26
 14 8 -44 -1.21 4.18
 -14 -8 -44 -6.53 3.31
 -8 -14 44 -2.98 4.11
 14 -10 -44 -0.94 4.56
 -14 -10 44 -3.85 3.64
 10 14 -44 0.86 5.21
 10 -14 44 6.21 4.03
 -10 -14 44 3.82 4.33
 14 10 -44 -7.93 4.29
 14 -12 -44 -4.05 4.35
 12 14 -44 0.42 5.01
 -14 -12 44 0.51 3.65
 -12 -14 44 -3 4.5
 14 12 -44 5.71 4.74
 -14 -14 44 -3.86 4.23
 14 14 -44 -0.95 4.96
 14 -14 -44 1.5 3.97
 -15 1 -44 -3.93 3.2
 15 -1 -44 1.81 4.36
 1 -15 44 -5.74 4.64
 15 1 -44 1.64 4.06
 -15 -1 -44 -5.99 3.41
 -1 -15 44 -4.79 4.87
 -15 3 -44 -0.35 3.19
 3 -15 44 0.86 4.74
 15 -3 -44 2.47 4.24
 -3 -15 44 -0.03 4.66
 -15 -3 -44 1.97 3.43
 15 3 -44 4.4 4.2
 15 -5 -44 8.42 4.05
 5 -15 44 7.29 4.63
 -15 5 -44 4.82 3.06
 -5 -15 44 -2.25 4.71
 -15 -5 -44 -1.17 3.25
 15 5 -44 -1.34 4.5
 7 15 -44 1.96 5.14
 7 -15 44 3.36 4.34
 15 -7 -44 -2.22 4.48
 -7 -15 44 -5.35 4.57
 15 7 -44 -0.21 4.56
 -15 -7 -44 3.67 3.42
 15 -9 -44 0.57 4.09
 9 -15 44 -5.92 4.11
 15 9 -44 -3.49 4.67
 -9 -15 44 -8.08 3.96
 11 15 -44 2.36 5.42
 11 -15 44 -4.39 4.1
 -15 -11 44 -6.64 3.79
 15 -11 -44 -0.6 4.27
 15 11 -44 -1.7 4.95
 -11 -15 44 0.01 4.12
 -15 -13 44 1.04 3.7
 15 -13 -44 -0.79 4.37
 15 13 -44 0.93 5.34
 -13 -15 44 0.07 4.29
 -16 0 -44 1.66 3.23
 16 0 -44 -2.14 3.88
 0 -16 44 8.35 4.54
 -16 2 -44 -0.27 3.19
 2 -16 44 9.5 4.83
 16 -2 -44 5.55 4.26
 -2 -16 44 -5.36 4.48
 16 2 -44 4.58 3.88
 -16 -2 -44 4.91 3.43
 16 -4 -44 6.62 4.26
 -16 4 -44 5.06 3
 4 -16 44 -1.06 4.71
 -16 -4 -44 11.97 3.44
 -4 -16 44 7.06 4.39
 16 -6 -44 -3.56 4
 6 -16 44 4.15 4.48
 -16 -6 -44 2.98 3.45
 16 6 -44 6.86 4.14
 -6 -16 44 5.83 4.37
 16 -8 -44 0.26 4.23
 8 -16 44 -4.49 4.35
 -16 -8 -44 -2.39 3.32
 -8 -16 44 -0.13 4.56
 16 8 -44 -3.48 4.12
 -16 -10 44 -8.06 3.81
 10 -16 44 -8.29 4.14
 16 -10 -44 -0.65 4.46
 16 10 -44 -0.15 4.21
 -10 -16 44 2.33 4.3
 -16 -12 44 -1.57 3.6
 16 -12 -44 -0.34 4.41
 -12 -16 44 4.52 3.84
 16 12 -44 4.77 4.68
 -17 1 -44 0.22 3.12
 17 -1 -44 2.39 3.86
 1 -17 44 3.28 4.6
 17 1 -44 -1.5 3.92
 -17 -1 -44 6.38 3.29
 -1 -17 44 -1.69 4.74
 3 -17 44 2.95 4.76
 -17 3 -44 2.39 2.89
 17 -3 -44 -1.2 4.21
 17 3 -44 -0.43 4.17
 -17 -3 -44 4.39 3.54
 -3 -17 44 13.16 4.83
 5 -17 44 1.83 4.72
 17 -5 -44 -1.22 4.09
 -17 -5 -44 -2.35 3.42
 17 5 -44 6.82 4.48
 -5 -17 44 -5.12 4.43
 7 -17 44 -1.14 4.43
 17 -7 -44 0.09 4.33
 17 7 -44 4.82 4.6
 -17 -7 -44 4.39 3.49
 -7 -17 44 1.98 4.35
 17 -9 -44 1.17 4.18
 9 -17 44 4.13 4.24
 17 9 -44 4.93 4.84
 -9 -17 44 -5.99 4.4
 17 -11 -44 2.01 4.19
 11 -17 44 -0.2 4.1
 -17 -11 44 -5.93 3.6
 17 11 -44 5.11 5.04
 -11 -17 44 -1.58 4.53
 0 -18 44 1.33 4.87
 18 0 -44 -1.7 3.99
 18 -2 -44 -0.51 3.91
 2 -18 44 0.27 4.62
 -18 -2 -44 1.11 3.13
 18 2 -44 -4.4 4.3
 -2 -18 44 -5.65 4.93
 4 -18 44 12.17 4.75
 18 -4 -44 8.13 4.45
 -18 -4 -44 0.02 3.46
 -4 -18 44 2.65 4.83
 18 4 -44 8.41 4.49
 18 -6 -44 5.61 3.96
 6 -18 44 -1.2 4.6
 18 6 -44 2.85 4.28
 -6 -18 44 5.44 4.34
 8 -18 44 2.63 4.57
 18 -8 -44 -2.89 4.16
 -8 -18 44 5.76 4.73
 -18 -8 -44 2.12 3.46
 18 8 -44 2.36 4.34
 10 -18 44 4.07 4.2
 18 -10 -44 5.28 4.38
 -10 -18 44 1.89 3.94
 18 10 -44 3.49 4.39
 1 -19 44 -5.71 4.84
 19 -1 -44 -0.84 4
 19 1 -44 -4.74 4.26
 -1 -19 44 8.38 4.99
 19 -3 -44 1.96 4.09
 3 -19 44 7.14 4.66
 19 3 -44 1.32 4.11
 -3 -19 44 3.16 5.04
 19 -5 -44 -2.6 4.14
 5 -19 44 -0.02 4.65
 19 5 -44 8.27 4.2
 -19 -5 -44 -0.31 3.57
 -5 -19 44 2.03 4.74
 19 -7 -44 6.49 4.36
 7 -19 44 -3.55 4.5
 -7 -19 44 2.16 4.22
 -19 -7 -44 -4.98 4.46
 19 7 -44 4.33 4.34
 9 -19 44 -0.95 4.4
 19 -9 -44 -1.44 4.2
 19 9 -44 9.63 4.73
 -9 -19 44 -0.46 4.54
 -19 -9 -44 -3.02 5.47
 20 0 -44 12.15 4.36
 0 -20 44 6.16 5.01
 2 -20 44 0.75 4.79
 20 -2 -44 2.93 3.92
 -2 -20 44 -1.5 4.91
 20 2 -44 2.69 4.1
 4 -20 44 13.69 4.67
 20 -4 -44 11.87 4.46
 20 4 -44 5.37 4.3
 -4 -20 44 3.12 4.95
 20 -6 -44 5.64 4.03
 6 -20 44 0.83 4.58
 20 6 -44 4.77 4.52
 -6 -20 44 7.31 4.35
 1 -21 44 -1.2 4.92
 21 -1 -44 2.11 4.16
 21 1 -44 1.34 4.08
 -1 -21 44 -1.91 5.02
 -1 0 -45 4.51 3.55
 0 1 -45 -2.3 3.55
 1 0 -45 -3.29 3.95
 0 -1 -45 2.33 3.7
 -1 -2 -45 -0.16 3.6
 2 -1 -45 -6.65 3.7
 1 2 -45 -3.38 3.87
 -2 -1 -45 7.75 3.34
 -1 2 -45 5.68 3.68
 1 -2 -45 1.45 3.85
 2 1 -45 -7.64 3.55
 0 3 -45 -1.59 3.4
 3 0 -45 7.68 3.91
 0 -3 -45 1.26 3.68
 3 -2 -45 -1.58 3.69
 -2 -3 -45 -0.92 3.47
 2 3 -45 2.41 3.46
 3 2 -45 2.16 3.94
 2 -3 -45 -6.12 4.04
 1 4 -45 1.29 3.91
 -1 -4 -45 -1.67 3.93
 4 -1 -45 0.86 3.95
 1 -4 -45 5.38 3.83
 4 1 -45 -5.5 3.96
 4 -3 -45 2.9 3.84
 3 4 -45 -2.09 3.89
 -3 -4 -45 0.14 4
 4 3 -45 0.79 3.5
 3 -4 -45 -9.58 4.16
 0 5 -45 11.75 3.83
 0 -5 -45 8.54 4.32
 5 0 -45 17.09 4.03
 -2 -5 -45 -5.13 3.61
 5 -2 -45 4.99 3.93
 2 5 -45 1.07 3.55
 2 -5 -45 -1.79 3.88
 5 2 -45 4.59 3.67
 5 -4 -45 -0.47 4.39
 4 5 -45 -0.48 3.66
 5 4 -45 -5.63 3.85
 4 -5 -45 1.5 3.96
 1 6 -45 4.66 3.9
 6 -1 -45 1.76 4.12
 -1 -6 -45 6.84 3.9
 1 -6 -45 1.85 4.28
 6 1 -45 7.23 3.77
 6 -3 -45 -2.58 3.89
 -3 -6 -45 -4.6 3.63
 3 6 -45 -6.05 4.07
 3 -6 -45 0.61 4.5
 6 3 -45 1.08 4.1
 6 -5 -45 0.46 3.99
 5 6 -45 9.2 4.12
 6 5 -45 1.39 3.97
 5 -6 -45 8.55 4.62
 -7 0 -45 12.54 3.33
 7 0 -45 14.93 3.83
 0 -7 -45 12.09 4.15
 -2 -7 -45 3.4 4.02
 7 -2 -45 8.45 4.05
 2 7 -45 3.19 3.91
 2 -7 -45 -3.29 4.1
 7 2 -45 1.48 4.14
 4 7 -45 11.65 4.16
 7 -4 -45 2.66 4.43
 4 -7 -45 10 4.2
 7 4 -45 5.43 3.72
 7 -6 -45 5.62 4.53
 6 7 -45 10.5 4.19
 6 -7 -45 2.33 4.27
 7 6 -45 4.9 4.25
 8 -1 -45 -3.06 4.09
 1 8 -45 6.52 4.09
 -1 -8 -45 3.79 3.86
 1 -8 -45 5.11 4.23
 8 1 -45 4.91 4.13
 3 8 -45 -1.35 3.97
 8 -3 -45 -1.58 3.92
 -3 -8 -45 0.54 4.07
 -8 -3 -45 -0.51 3.14
 3 -8 -45 1.34 4.46
 8 3 -45 -1.41 3.6
 5 8 -45 5.86 3.98
 8 -5 -45 9.84 3.98
 5 -8 -45 -7.44 4.34
 8 5 -45 -0.38 4.1
 8 -7 -45 1.04 4.5
 7 8 -45 4.99 4.12
 7 -8 -45 -2.19 4.22
 8 7 -45 2.37 4.01
 0 -9 -45 20.66 4.46
 -9 0 -45 16.95 3.58
 9 -2 -45 1.99 4.05
 2 9 -45 -1.13 4.06
 -2 -9 45 -1.34 4.38
 9 2 -45 9.19 3.94
 2 -9 -45 4.04 4.15
 -9 -2 -45 1.34 3.3
 9 -4 -45 2.75 4.19
 4 9 -45 7.33 4.49
 4 -9 -45 -0.68 4.49
 9 4 -45 -2.48 3.94
 -9 -4 -45 6.77 3.33
 -4 -9 45 -3.7 4.39
 6 9 -45 7.16 4.51
 9 -6 -45 4.71 4.31
 9 6 -45 2.28 3.99
 6 -9 -45 -2.12 4.55
 -6 -9 45 7.29 4.59
 -9 -6 -45 6.19 3.21
 8 9 -45 1.11 4.52
 9 8 -45 1.14 4.44
 8 -9 -45 -5.64 4.36
 -8 -9 45 4.38 4.21
 1 10 -45 17.7 4.36
 10 1 -45 7.36 4.16
 3 -10 45 -3.5 4.44
 3 10 -45 2.26 4.08
 10 -3 -45 1.03 4.14
 -10 -3 -45 0.94 3.39
 10 3 -45 5.93 3.79
 10 -5 -45 3.39 4.57
 5 10 -45 9.62 4.27
 -5 -10 45 0.81 4.07
 -10 -5 -45 4.8 3.29
 5 -10 -45 3.64 4.2
 10 -7 -45 9.01 4.36
 7 10 -45 11.69 4.39
 -7 -10 45 1.97 3.93
 -10 -7 -45 14.85 3.4
 9 10 -45 6.33 4.25
 10 -9 -45 8.63 4.8
 -10 -9 45 2.4 3.81
 10 9 -45 7.98 4.16
 -9 -10 45 1.73 3.92
 9 -10 -45 8.19 4.08
 11 0 -45 8.47 3.97
 -11 0 -45 8.82 3.53
 0 -11 45 7.29 4.22
 2 11 -45 1.95 4.11
 11 -2 -45 1.57 3.77
 2 -11 45 5.76 4.37
 -11 2 -45 -6.71 3.31
 -2 -11 45 -0.73 4.67
 -11 -2 -45 0.64 3.44
 11 2 -45 0.19 3.72
 -11 4 -45 -5.27 3.67
 4 -11 45 -4.22 4.27
 4 11 -45 7.2 4.25
 11 -4 -45 3.28 3.93
 11 4 -45 1.06 4.38
 -4 -11 45 -1.88 4.15
 -11 -4 -45 -1.07 3.23
 11 -6 -45 0.15 4.31
 6 11 -45 4.87 4.07
 11 6 -45 3.66 4.18
 -11 -6 -45 6.23 3.43
 6 -11 -45 1.55 4.22
 -6 -11 45 6.22 4.18
 11 -8 -45 10.63 4.33
 8 11 -45 3.69 4.23
 -11 -8 -45 4.32 3.46
 11 8 -45 2.34 4.03
 8 -11 -45 -3.34 4.39
 -8 -11 45 3.18 4.54
 10 11 -45 1.32 4.41
 11 -10 -45 6.21 4.62
 -11 -10 45 1.99 4.27
 11 10 -45 8.31 4.32
 10 -11 -45 3.4 4.27
 -10 -11 45 3.67 4.07
 1 12 -45 10.13 4.58
 12 -1 -45 6.05 4.32
 -12 1 -45 1.73 3.29
 12 1 -45 3.41 4.03
 -1 -12 45 -1.34 4.18
 -12 -1 -45 -2.96 3.55
 3 12 -45 -2.41 4.25
 12 -3 -45 6.63 4.11
 3 -12 45 -5.47 4.34
 -12 3 -45 5.53 3.43
 -3 -12 45 1.15 4.53
 -12 -3 -45 0.32 3.41
 12 3 -45 5.37 3.82
 5 12 -45 -1.91 4.54
 -12 5 -45 -4.37 3.49
 5 -12 45 -7.44 4.17
 12 -5 -45 -0.88 4.04
 12 5 -45 3.51 3.89
 -12 -5 -45 1.52 3.42
 12 -7 -45 -3.38 4.49
 7 12 -45 -0.89 4.47
 12 7 -45 2.3 4.06
 -7 -12 45 2.02 4.33
 -12 -7 -45 1.98 3.49
 9 12 -45 7.86 4.58
 12 -9 -45 -7.18 4.19
 -12 -9 45 0.07 4.3
 12 9 -45 -6.33 4.51
 9 -12 -45 0.47 4.04
 -9 -12 45 2.82 3.88
 12 -11 -45 -6.75 4.1
 11 12 -45 1.08 4.9
 -12 -11 45 -1.17 4.34
 11 -12 -45 -1.94 4.47
 12 11 -45 -2.2 4.84
 -11 -12 45 1.17 4.34
 13 0 -45 12.44 4.06
 0 -13 45 12.12 4.68
 -13 0 -45 8.15 3.45
 2 -13 45 4.76 4.51
 13 -2 -45 2.93 4.26
 2 13 -45 3.75 4.64
 -13 2 -45 -0.27 3.41
 -2 -13 45 -6.05 4.29
 -13 -2 -45 2.47 3.41
 13 2 -45 4.27 3.96
 -13 4 -45 0.1 3.45
 4 13 -45 6.49 4.43
 4 -13 45 -7.13 4.36
 13 -4 -45 -0.63 4.34
 -13 -4 -45 4.59 3.41
 -4 -13 45 1.44 4.23
 13 4 -45 5.13 4.35
 6 -13 45 -6.94 4.12
 13 -6 -45 -1.32 3.99
 -13 6 -45 -0.41 3.25
 6 13 -45 0.42 4.72
 -13 -6 -45 0.26 3.37
 13 6 -45 6 4.53
 -6 -13 45 -6.96 4.1
 8 -13 45 -6.03 4.13
 8 13 -45 -2.41 4.61
 13 -8 -45 8.88 4.72
 -8 -13 45 5.11 4.66
 13 8 -45 9.44 4.5
 -13 -8 -45 -0.19 3.59
 13 -10 -45 -2.41 4.54
 10 13 -45 15.66 4.89
 -13 -10 45 6 4.04
 10 -13 -45 4.84 4.35
 -10 -13 45 -3.11 3.83
 12 13 -45 8.25 5.02
 -13 -12 45 0.33 4.21
 13 -12 -45 7.35 4.55
 12 -13 -45 -2.17 4.09
 -12 -13 45 -3.47 4.31
 13 12 -45 5.74 4.68
 1 -14 45 0.58 4.54
 14 -1 -45 2.29 3.84
 1 14 -45 5.3 4.41
 -14 1 -45 3.08 3.42
 14 1 -45 -6.64 3.8
 -14 -1 -45 -1.1 3.4
 -1 -14 45 -1.36 4.44
 14 -3 -45 -0.45 3.98
 -14 3 -45 -0.93 3.4
 3 -14 45 -7.36 4.35
 3 14 -45 4.84 4.69
 14 3 -45 -3.5 3.81
 -14 -3 -45 4.82 3.4
 -3 -14 45 -2.71 4.59
 5 14 -45 2.45 4.78
 5 -14 45 5.71 4.27
 -14 5 -45 3.23 3.21
 14 -5 -45 5.58 4.4
 -14 -5 -45 1.83 3.32
 14 5 -45 1.64 3.95
 -5 -14 45 3.74 4.63
 7 -14 45 1.74 4.15
 7 14 -45 1.73 5.1
 14 -7 -45 0.92 4.01
 -14 -7 -45 6.33 3.42
 14 7 -45 3.67 4.05
 -7 -14 45 6.06 4.07
 9 14 -45 10.75 5.16
 9 -14 45 -1.55 4.07
 14 -9 -45 7.28 4.31
 -14 -9 -45 -2.99 3.47
 14 9 -45 1.98 4.31
 -9 -14 45 1.72 4.34
 11 14 -45 7.08 5.29
 14 -11 -45 -1.88 4.41
 -11 -14 45 0.3 3.77
 14 -13 -45 -3.22 4.02
 -14 -13 45 0.86 4.41
 13 14 -45 4.21 4.96
 13 -14 -45 3.94 4.21
 14 13 -45 7.48 4.81
 -13 -14 45 -0.87 4.2
 0 -15 45 7.82 4.8
 -15 0 -45 5.4 3.32
 15 0 -45 10.69 4.17
 -15 2 -45 -0.87 3.43
 15 -2 -45 -1.81 4.03
 2 -15 45 2.81 4.36
 15 2 -45 -4.94 4.15
 -2 -15 45 7.37 4.62
 -15 -2 -45 -0.56 3.53
 -15 4 -45 3.04 3.22
 4 -15 45 -8.11 4.37
 15 -4 -45 -4.17 3.96
 15 4 -45 -0.17 4.41
 -4 -15 45 1.06 4.51
 -15 -4 -45 0.73 3.46
 15 -6 -45 4.48 4.31
 -15 6 -45 2.57 3
 6 -15 45 2.08 4.37
 6 15 -45 -7.4 4.92
 15 6 -45 0.47 4.61
 -15 -6 -45 -0.03 3.45
 -6 -15 45 -3.15 4.83
 8 15 -45 -5.85 5.24
 15 -8 -45 2.94 4.35
 8 -15 45 0.11 4.21
 -8 -15 45 1.98 4.36
 -15 -8 -45 3.71 3.32
 15 8 -45 6.14 4.66
 -15 -10 45 -1.07 3.61
 10 -15 45 -1.79 4.15
 10 15 -45 -5.17 5.33
 15 -10 -45 1.71 4.16
 15 10 -45 4.79 4.82
 -10 -15 45 3.77 4.38
 -15 -12 45 -4.03 3.84
 12 15 -45 4.03 5.55
 15 -12 -45 1.12 4.42
 15 12 -45 13.8 5.05
 -12 -15 45 -5.2 3.72
 16 -1 -45 -0.39 4.3
 1 -16 45 0.5 4.89
 -16 1 -45 4.9 3.26
 -1 -16 45 0.39 4.48
 16 1 -45 -7.65 3.98
 -16 -1 -45 0.62 3.17
 -16 3 -45 -1.07 3.16
 3 -16 45 9.89 4.44
 16 -3 -45 1.45 4.05
 16 3 -45 2.73 3.89
 -3 -16 45 4.05 4.44
 -16 -3 -45 0.56 3.48
 5 -16 45 2.07 4.44
 16 -5 -45 7.66 4.13
 16 5 -45 6.19 4.12
 -5 -16 45 4.52 4.29
 -16 -5 -45 3.07 3.51
 16 -7 -45 -3.17 4.06
 7 -16 45 3.05 4.31
 -16 -7 -45 3.13 3.49
 16 7 -45 -2.86 4.13
 -7 -16 45 -3.53 4.6
 16 -9 -45 0.57 4.43
 9 -16 45 -6.62 4.26
 -9 -16 45 3.5 4.26
 16 9 -45 5.35 4.21
 11 -16 45 5.7 4.01
 -16 -11 45 -2.58 3.58
 16 -11 -45 9.93 4.45
 -11 -16 45 -2.36 4.46
 16 11 -45 3.22 4.52
 0 -17 45 -0.03 4.58
 17 0 -45 1.45 3.82
 -17 0 -45 1.31 3.06
 2 -17 45 -6.82 4.8
 17 -2 -45 1.27 4.42
 17 2 -45 -1.31 3.85
 -17 -2 -45 -0.01 3.25
 -2 -17 45 -0.62 4.75
 17 -4 -45 4.17 4.01
 4 -17 45 0.1 4.54
 17 4 -45 -0.69 4.17
 -4 -17 45 8.64 4.72
 -17 -4 -45 -5.37 3.48
 17 -6 -45 4.63 4.45
 6 -17 45 -6.64 4.35
 -17 -6 -45 -0.13 3.38
 -6 -17 45 -3.27 4.18
 17 -8 -45 3.7 4.08
 8 -17 45 -5.28 4.32
 17 8 -45 -3.55 4.57
 -17 -8 -45 -0.86 3.36
 -8 -17 45 -2.57 4.66
 10 -17 45 -1.21 4.1
 17 -10 -45 5.28 4.22
 17 10 -45 6.69 4.78
 -10 -17 45 4.04 3.93
 18 -1 -45 3.35 3.92
 1 -18 45 0.22 4.68
 18 1 -45 7.61 4
 -1 -18 45 -3.77 4.84
 -18 -1 -45 5.51 3.26
 3 -18 45 -5.81 4.76
 18 -3 -45 1.97 4.35
 18 3 -45 -7.91 4.35
 -3 -18 45 2.28 4.87
 18 -5 -45 4.03 3.99
 5 -18 45 -1.76 4.55
 -18 -5 -45 2.07 3.56
 -5 -18 45 -0.18 4.69
 7 -18 45 -1.72 4.45
 18 -7 -45 4.38 4.15
 -7 -18 45 0.09 4.15
 -18 -7 -45 -1.53 3.38
 9 -18 45 4.09 4.3
 18 -9 -45 4.53 4.28
 -18 -9 -45 -1.79 3.48
 -9 -18 45 5.3 4.57
 18 9 -45 1.53 4.24
 19 0 -45 -1.97 3.98
 0 -19 45 -5.75 4.85
 19 -2 -45 -5.44 3.91
 2 -19 45 3.62 4.69
 -2 -19 45 10.84 5
 19 2 -45 2.26 4.44
 19 -4 -45 4.86 4.09
 4 -19 45 6.01 4.77
 19 4 -45 9.26 4.25
 -4 -19 45 3.02 4.85
 6 -19 45 6.56 4.65
 19 -6 -45 -0.81 4.25
 19 6 -45 8.96 4.07
 -6 -19 45 0.83 4.37
 1 -20 45 7.29 4.88
 20 -1 -45 4.37 3.87
 -1 -20 45 -6.09 4.97
 20 1 -45 -2.1 4.33
 3 -20 45 1.7 4.66
 20 -3 -45 0.72 4.26
 -3 -20 45 7.17 5.04
 20 3 -45 8.37 4.09
 0 0 -46 -0.06 3.58
 1 -1 -46 7.8 4.08
 1 1 -46 6.72 3.75
 -1 1 -46 14.67 3.61
 -1 -1 -46 8.56 3.68
 2 0 -46 298.38 12.21
 0 -2 -46 268.54 12.17
 0 2 -46 274.53 12.05
 2 -2 -46 -1.41 4.07
 2 2 -46 -1.72 3.67
 -2 -2 -46 4.52 3.39
 -1 -3 -46 5.52 3.95
 3 -1 -46 6.55 3.77
 1 3 -46 2.55 3.54
 3 1 -46 6.77 4.02
 1 -3 -46 6.4 3.77
 3 3 -46 6.03 3.6
 3 -3 -46 0.28 4.18
 0 -4 -46 -0.16 4.2
 4 0 -46 0.94 3.94
 0 4 -46 8.42 3.54
 -2 -4 -46 173.35 8.68
 2 4 -46 172.73 8.58
 4 -2 -46 183.99 9.06
 2 -4 -46 162.91 9.14
 4 2 -46 178.2 8.92
 4 4 -46 -1.98 3.62
 4 -4 -46 -6.13 4.2
 1 5 -46 13.35 3.87
 5 -1 -46 12.98 4.16
 -1 -5 -46 6.7 3.81
 5 1 -46 7.91 3.68
 1 -5 -46 19.73 4.5
 5 -3 -46 29.3 4.04
 3 5 -46 26 3.96
 -3 -5 -46 30.59 3.87
 5 3 -46 37.16 4.24
 3 -5 -46 23.42 4.26
 5 5 -46 133.32 7.54
 5 -5 -46 123.45 8.16
 6 0 -46 -4.02 3.63
 0 -6 -46 4.27 4.04
 -2 -6 -46 134.86 7.74
 6 -2 -46 136.64 7.85
 2 6 -46 130.58 7.77
 6 2 -46 134.47 7.75
 2 -6 -46 153 8.11
 6 -4 -46 10.97 4.38
 4 6 -46 6.45 4.3
 4 -6 -46 7.39 4.55
 6 4 -46 5.71 3.59
 6 6 -46 5.42 4.25
 6 -6 -46 1.67 4.56
 1 7 -46 16.66 4.15
 -1 -7 -46 9.15 4.07
 7 -1 -46 7.54 3.9
 1 -7 -46 1.06 4.34
 7 1 -46 9.95 4.27
 -7 -1 -46 14.49 4.44
 3 7 -46 26.04 4.17
 -7 3 -46 13.71 3.33
 7 -3 -46 18.08 4.07
 -3 -7 -46 21.05 4.03
 7 3 -46 17.57 3.69
 5 7 -46 113.46 7.61
 7 -5 -46 104.39 7.6
 5 -7 -46 94.48 7.49
 7 5 -46 115.27 7.22
 7 -7 -46 90.14 7.34
 7 7 -46 96.65 7.4
 0 -8 -46 4.86 4.08
 8 0 -46 -2.12 3.85
 8 -2 -46 74.32 5.05
 2 -8 -46 61.01 5.06
 -8 -2 -46 59.33 4.21
 8 2 -46 57.83 4.64
 8 -4 -46 6.61 4.43
 -8 -4 -46 6.14 3.18
 8 4 -46 -1.29 4.1
 4 -8 -46 -0.13 4.24
 8 -6 -46 8.12 4.33
 6 8 -46 5.09 4
 6 -8 -46 9.42 4.27
 8 6 -46 2.58 3.78
 8 8 -46 -1.42 4.23
 8 -8 -46 -9.02 4.33
 9 -1 -46 2.82 3.88
 -1 -9 -46 10.64 3.98
 -9 -1 -46 5.13 3.4
 1 -9 -46 7.97 4.43
 3 9 -46 58.62 4.93
 9 -3 -46 43.45 4.61
 -3 -9 -46 62.61 4.79
 -3 -9 46 57.89 5.2
 9 3 -46 51.57 4.56
 3 -9 -46 63.17 5.46
 -9 -3 -46 45.13 4.1
 5 9 -46 166.32 8.57
 -5 -9 46 138.88 8.66
 -9 -5 -46 156.62 7.82
 5 -9 -46 157.78 8.79
 9 5 -46 164.36 8.71
 9 -7 -46 144.75 8.33
 -9 -7 -46 132.3 7.33
 7 -9 -46 132.44 8.52
 9 7 -46 145.49 8.11
 -7 -9 46 138.17 8.26
 -9 -9 46 161.42 8.83
 9 -9 -46 169.98 9.14
 10 0 -46 367.27 15.17
 -10 0 -46 365.08 14.96
 0 -10 46 347.15 15.4
 0 10 -46 394.5 15.4
 2 10 -46 161.88 8.61
 10 -2 -46 157.43 8.51
 2 -10 -46 163.81 8.71
 10 2 -46 159.92 8.56
 -10 -2 -46 155.25 8
 -2 -10 46 151.13 8.83
 4 10 -46 190.08 9.69
 10 -4 -46 185.78 9.37
 10 4 -46 184.23 9.27
 -4 -10 46 193.47 9.68
 -10 -4 -46 181.93 8.65
 10 -6 -46 107.05 7.67
 6 10 -46 129.13 7.76
 10 6 -46 120.57 7.64
 6 -10 -46 118.64 7.89
 -10 -6 -46 119.48 6.97
 -6 -10 46 121.37 7.7
 8 10 -46 87.48 7.12
 10 -8 -46 93.4 6.05
 10 8 -46 92.68 7.01
 10 10 -46 10.12 4.17
 10 -10 -46 2.78 4.68
 -10 -10 46 -1.53 3.87
 11 -1 -46 -1.82 4.2
 1 -11 46 0.64 4.5
 -11 1 -46 3.7 3.36
 -1 -11 46 3.36 4.44
 11 1 -46 -4.2 4.03
 -11 -1 -46 6.79 3.58
 3 11 -46 16.85 4.49
 3 -11 46 14.38 4.58
 -11 3 -46 8.01 3.62
 11 -3 -46 20.13 4.44
 11 3 -46 14.44 4.32
 -3 -11 46 8.51 4.27
 -11 -3 -46 10.32 3.55
 11 -5 -46 49.97 4.87
 5 11 -46 40.32 4.61
 5 -11 -46 54.33 5.14
 11 5 -46 50.53 4.68
 -11 -5 -46 51.54 4.05
 -5 -11 46 36.26 4.59
 11 -7 -46 29.78 4.57
 7 11 -46 31.63 4.46
 11 7 -46 37.72 4.32
 -11 -7 -46 42.52 3.93
 -7 -11 46 34.16 4.36
 11 -9 -46 66.99 5.34
 9 11 -46 58.91 4.96
 -11 -9 -46 79.2 5.67
 -9 -11 46 78 5.47
 11 9 -46 66.38 5.09
 9 -11 -46 54.74 5.02
 -11 -11 46 20.12 4.03
 11 -11 -46 26.23 4.56
 12 0 -46 1.29 3.87
 0 -12 46 4.69 4.32
 -12 0 -46 6.02 3.46
 12 -2 -46 1.48 3.85
 -12 2 -46 9.8 3.62
 2 -12 46 1.32 4.24
 2 12 -46 4.63 4.21
 -2 -12 46 -3.61 4.4
 12 2 -46 3.72 3.71
 -12 -2 -46 1.61 3.48
 4 12 -46 6.39 4.68
 12 -4 -46 4.59 4.03
 4 -12 46 -4.6 4.21
 -12 4 -46 -2.99 3.64
 -12 -4 -46 4.47 3.39
 12 4 -46 1.97 3.82
 -4 -12 46 0.4 4.57
 6 -12 46 1.5 4.28
 6 12 -46 4.7 4.44
 12 -6 -46 -6.46 4.3
 12 6 -46 -0.82 4.08
 -12 -6 -46 5.31 3.48
 -6 -12 46 11.01 4.61
 8 12 -46 11.5 4.51
 12 -8 -46 4.23 4.17
 8 -12 -46 -4.2 4.09
 -8 -12 46 3.05 4.24
 -12 -8 -46 3.87 3.51
 10 12 -46 11.45 4.6
 -12 -10 46 1.67 4.09
 12 -10 -46 6.67 4.28
 10 -12 -46 9.14 4.67
 -10 -12 46 0.6 3.88
 12 10 -46 17.82 4.8
 12 12 -46 4.99 5.11
 12 -12 -46 3.14 4.24
 -12 -12 46 2.56 4.09
 1 -13 46 1.35 4.34
 1 13 -46 16.05 4.41
 13 -1 -46 18.24 4.32
 -13 1 -46 12.42 3.44
 -1 -13 46 3.33 4.72
 -13 -1 -46 8.03 3.54
 13 1 -46 9.97 4.31
 3 -13 46 20.16 4.53
 -13 3 -46 32.23 3.89
 13 -3 -46 27.17 4.3
 3 13 -46 28.28 4.42
 13 3 -46 18.11 4.33
 -13 -3 -46 23.98 3.69
 -3 -13 46 16.79 4.41
 5 -13 46 64.2 5.07
 -13 5 -46 68.1 5.63
 13 -5 -46 58.89 4.82
 -13 -5 -46 54.17 4.28
 7 13 -46 54.69 5.14
 7 -13 46 52.6 4.84
 13 -7 -46 46.42 5.02
 -13 7 -46 43.02 3.9
 -7 -13 46 47.11 4.65
 -13 -7 -46 57.98 4.2
 13 -9 -46 76.28 5.68
 -9 -13 46 78.22 5.63
 -13 -9 -46 67.17 4.72
 9 -13 -46 64.69 5.32
 13 9 -46 86.39 6.84
 13 -11 -46 46.22 5.2
 -13 -11 46 41.25 4.84
 11 13 -46 55.15 5.38
 13 11 -46 40.28 4.93
 13 -13 -46 42.09 4.77
 -13 -13 46 34.33 4.45
 -14 0 -46 55.19 4.1
 0 -14 46 42.85 4.84
 14 0 -46 51.15 4.57
 14 -2 -46 23.17 4.45
 2 14 -46 29.93 5.14
 -14 2 -46 17.89 3.59
 2 -14 46 26.34 4.62
 -14 -2 -46 23.47 3.72
 -2 -14 46 16.41 4.71
 14 2 -46 14.48 3.94
 4 14 -46 2.57 4.55
 4 -14 46 8.1 4.38
 -14 -4 -46 13.95 3.61
 14 4 -46 8.02 3.98
 -4 -14 46 5.48 4.74
 -14 6 -46 8.79 3.29
 6 -14 46 9.71 4.33
 6 14 -46 21.71 5.17
 14 -6 -46 1.2 4.11
 -14 -6 -46 9.92 3.5
 14 6 -46 6.82 4.11
 -6 -14 46 13.33 4.53
 8 -14 46 24.38 4.31
 8 14 -46 18.99 4.96
 14 -8 -46 9.86 4.27
 -14 -8 -46 17.74 3.51
 -8 -14 46 14.54 4.02
 14 8 -46 9.19 4.32
 -14 -10 46 2.86 4.13
 10 -14 46 -6.22 4.16
 10 14 -46 12.88 4.97
 14 -10 -46 1.96 4.36
 14 10 -46 4.27 4.2
 -10 -14 46 2.22 4.54
 -14 -12 46 16.4 4.38
 12 14 -46 9.17 5.41
 14 -12 -46 4.05 4.14
 12 -14 -46 4.66 4.46
 -12 -14 46 6.35 3.76
 14 12 -46 8.46 4.55
 1 -15 46 -1.32 4.4
 -15 1 -46 0.12 3.26
 15 -1 -46 0.93 3.8
 15 1 -46 2.03 3.83
 -15 -1 -46 -6.9 3.36
 -1 -15 46 10.71 4.82
 15 -3 -46 -2.18 4.16
 -15 3 -46 -2.81 3.28
 -15 -3 -46 -0.31 3.48
 15 3 -46 -0.54 4.08
 -3 -15 46 5.42 4.43
 5 15 -46 4.95 4.82
 15 -5 -46 7.39 4.1
 5 -15 46 7.05 4.35
 -5 -15 46 -2.38 4.45
 15 5 -46 1.33 4.36
 -15 -5 -46 1.59 3.49
 7 -15 46 -4.05 4.18
 7 15 -46 1.69 5.15
 15 -7 -46 4.3 4.4
 -15 -7 -46 0.56 3.44
 -7 -15 46 4.92 4.61
 15 7 -46 6.08 4.53
 9 -15 46 13.86 4.24
 15 -9 -46 4.68 4.27
 9 15 -46 2.22 5
 -9 -15 46 10.6 3.94
 15 9 -46 7.67 4.73
 -15 -9 -46 10.28 3.68
 11 -15 46 -0.86 4.04
 -15 -11 46 -4.57 4.07
 11 15 -46 -3.87 5.26
 15 -11 -46 -0.78 4.35
 15 11 -46 6.7 4.87
 -11 -15 46 0.93 4.38
 0 -16 46 1.2 4.55
 16 0 -46 3.78 4.1
 -16 0 -46 5 3.37
 2 -16 46 12.6 4.63
 -16 2 -46 7.49 3.31
 16 -2 -46 9.66 3.95
 -16 -2 -46 10.74 3.53
 -2 -16 46 1.16 4.38
 16 2 -46 14.77 4.3
 16 -4 -46 14.49 4.34
 4 -16 46 11.71 4.64
 -16 4 -46 9.87 3.05
 -4 -16 46 11.53 4.4
 16 4 -46 9.7 4.2
 -16 -4 -46 14.8 3.62
 6 -16 46 6.52 4.34
 16 -6 -46 4.47 3.93
 -6 -16 46 5.34 4.21
 -16 -6 -46 8.9 3.44
 16 -8 -46 -0.59 4.21
 8 -16 46 -4.99 4.13
 -16 -8 -46 3.49 3.42
 16 8 -46 0.7 4.14
 -8 -16 46 0.52 4.67
 16 -10 -46 4.77 4.39
 10 -16 46 6.39 4.08
 16 10 -46 0.96 4.21
 -10 -16 46 5.67 3.82
 -17 1 -46 7.21 3.24
 17 -1 -46 1.15 4.27
 1 -17 46 0.66 4.55
 17 1 -46 -7.57 3.84
 -17 -1 -46 4.48 3.31
 -1 -17 46 -2.52 4.69
 3 -17 46 -0.48 4.65
 17 -3 -46 2.4 3.89
 -3 -17 46 1.37 4.74
 -17 -3 -46 1.33 3.45
 17 3 -46 4.03 3.94
 5 -17 46 4.74 4.42
 17 -5 -46 4.18 4.35
 -5 -17 46 0.84 4.57
 -17 -5 -46 5.76 3.52
 17 5 -46 11.51 4.28
 7 -17 46 3.37 4.39
 17 -7 -46 2.62 4.17
 -17 -7 -46 -5.12 3.48
 17 7 -46 0.39 4.43
 -7 -17 46 7.59 4.16
 17 -9 -46 4.3 4.06
 9 -17 46 1.52 4.23
 -17 -9 -46 0.8 3.4
 -9 -17 46 5.84 4.6
 -18 0 -46 28.07 4.67
 0 -18 46 22.25 4.97
 18 0 -46 17.99 4.01
 18 -2 -46 13.9 4.33
 2 -18 46 5.61 4.61
 -2 -18 46 17.6 4.97
 18 2 -46 15.33 4.07
 -18 -2 -46 10.38 3.28
 18 -4 -46 8.1 4.03
 4 -18 46 1.15 4.7
 18 4 -46 2.61 4.43
 -4 -18 46 3.07 4.81
 6 -18 46 7.61 4.62
 18 -6 -46 0.4 4.04
 -18 -6 -46 7.33 3.53
 18 6 -46 8.79 4.41
 -6 -18 46 -2.42 4.41
 19 -1 -46 0.41 3.83
 1 -19 46 -0.68 4.67
 -1 -19 46 -5.2 4.82
 19 1 -46 2.17 3.98
 19 -3 -46 8.66 4.15
 3 -19 46 2.29 4.69
 -3 -19 46 5.54 4.94
 19 3 -46 6.8 4.46
 19 -5 -46 2.99 4.28
 5 -19 46 -2.43 4.53
 -5 -19 46 8.53 4.77
 19 5 -46 5.45 4.21
 1 0 -47 7.99 3.85
 0 1 -47 15.43 3.77
 -1 0 -47 16.52 3.7
 1 2 -47 12.13 3.67
 -1 -2 -47 13.92 3.92
 1 -2 -47 14.35 4.04
 2 1 -47 15.34 3.88
 -1 2 -47 22.19 3.55
 -2 -1 -47 19.27 3.41
 3 0 -47 18.46 4.03
 0 3 -47 11.26 3.61
 0 -3 -47 11.09 3.86
 3 -2 -47 3.45 3.8
 2 3 -47 4.1 3.76
 -2 -3 -47 5.51 3.41
 3 2 -47 4.3 3.61
 2 -3 -47 0.67 4.04
 4 -1 -47 2.57 4.05
 1 4 -47 2.37 3.45
 -1 -4 -47 2.08 3.75
 1 -4 -47 4.51 3.89
 4 1 -47 3.57 3.79
 4 -3 -47 5.58 4.08
 -3 -4 -47 11.45 3.92
 3 4 -47 5.43 3.46
 4 3 -47 3.66 3.74
 0 -5 -47 2.98 3.89
 5 0 -47 -0.18 3.87
 -2 -5 -47 -2.74 3.87
 2 5 -47 -1.27 3.92
 5 -2 -47 2.95 3.92
 2 -5 -47 1.87 4.37
 5 2 -47 1.66 4.1
 5 -4 -47 5.12 4.29
 4 5 -47 -1.12 3.98
 4 -5 -47 2.29 4.08
 5 4 -47 -2.34 3.6
 -1 -6 -47 6.94 4.23
 1 6 -47 9.07 3.7
 6 1 -47 -2.13 3.99
 1 -6 -47 2.47 4.05
 -3 -6 -47 -5.83 3.61
 3 6 -47 6.66 4.05
 6 -3 -47 0.94 3.85
 6 3 -47 -2.13 3.51
 3 -6 -47 2.46 4.3
 5 6 -47 3.72 4.11
 6 -5 -47 2.69 4.04
 5 -6 -47 7.7 4.38
 6 5 -47 2.51 4.1
 -7 0 -47 0.32 3.86
 7 0 -47 1.88 3.94
 0 -7 -47 0.86 4.16
 7 -2 -47 8.53 4.24
 2 7 -47 0.01 4.02
 -2 -7 -47 15.56 4.15
 2 -7 -47 12.53 4.62
 7 2 -47 4.94 3.67
 4 7 -47 5.58 3.93
 7 -4 -47 -3.41 4.23
 7 4 -47 -0.6 4.07
 4 -7 -47 -3.93 4.52
 7 -6 -47 -1.91 4.25
 6 7 -47 0.1 3.88
 7 6 -47 6.16 3.83
 6 -7 -47 1.6 4.71
 1 8 -47 7.29 3.93
 8 -1 -47 -4.54 3.75
 -1 -8 -47 10.51 4.4
 1 -8 -47 3.39 4.21
 8 1 -47 -3.96 3.89
 8 -3 -47 0.21 3.91
 3 8 -47 0.52 4.31
 -3 -8 -47 2.85 3.8
 -8 -3 -47 -4.72 3.05
 3 -8 -47 -4.46 4.12
 8 3 -47 4.85 3.99
 5 8 -47 0.7 4.06
 8 -5 -47 -0.74 4.1
 8 5 -47 5.51 3.86
 5 -8 -47 3.68 4.27
 7 8 -47 -5.37 4.17
 8 -7 -47 4.09 4.62
 7 -8 -47 4.59 4.42
 8 7 -47 11.93 4.18
 0 9 -47 44.27 4.6
 9 0 -47 31.94 4.53
 -2 -9 -47 56.18 5.01
 2 -9 -47 42.63 4.9
 -9 -2 -47 53.28 4.2
 9 2 -47 42.82 4.38
 9 -4 -47 29.58 4.37
 4 9 -47 18.8 4.6
 9 4 -47 18.65 3.91
 -9 -4 -47 20.85 3.49
 4 -9 -47 20.35 4.41
 6 9 -47 6.09 4.56
 9 -6 -47 14.16 4.09
 6 -9 -47 0.57 4.16
 -9 -6 -47 5.79 3.32
 9 -8 -47 1.48 4.63
 8 -9 -47 -1.76 4.36
 9 8 -47 7.33 4.39
 1 10 -47 15.49 4.36
 10 -3 -47 -6.35 3.97
 3 10 -47 4.51 4.08
 3 -10 -47 8.82 4.38
 -3 -10 47 -2.1 4.29
 -10 -3 -47 2.86 3.39
 10 3 -47 -2.36 3.98
 5 10 -47 7.11 4.12
 10 -5 -47 0.85 4.51
 10 5 -47 2.5 4.31
 5 -10 -47 7.84 4.43
 -10 -5 -47 -2.03 3.43
 -5 -10 47 -5.09 4.42
 7 10 -47 9.85 4.37
 10 -7 -47 16.03 4.3
 -10 -7 -47 14.52 3.56
 10 7 -47 10.82 4.27
 -7 -10 47 13.59 4.58
 9 10 -47 14.81 4.3
 10 -9 -47 10.23 4.67
 9 -10 -47 21.55 4.7
 10 9 -47 8.39 4.12
 -9 -10 47 10.69 4.16
 -11 0 -47 6.53 3.52
 0 -11 47 6.42 4.23
 11 0 -47 10.83 4.17
 2 11 -47 4.16 4.29
 -11 2 -47 -5.49 3.43
 2 -11 47 -3.01 4.28
 11 -2 -47 1.65 4.04
 -11 -2 -47 -4.3 3.5
 -2 -11 47 -1.67 4.5
 11 2 -47 1.4 3.95
 4 11 -47 1.98 4.19
 11 -4 -47 5.81 3.85
 11 4 -47 5.28 3.9
 4 -11 -47 -5.7 4.53
 -11 -4 -47 5.49 3.35
 11 -6 -47 -2.17 4.39
 6 11 -47 7.05 4.16
 -11 -6 -47 2.61 3.48
 6 -11 -47 -3.36 4.28
 -6 -11 47 -0.88 3.97
 11 6 -47 7.55 3.9
 11 -8 -47 -4.62 4.11
 8 11 -47 5.06 4.2
 8 -11 -47 -6.32 4.14
 11 8 -47 0.93 4.06
 -11 -8 -47 4.07 3.44
 11 -10 -47 -6.46 4.38
 10 11 -47 9.74 4.3
 11 10 -47 6.18 4.33
 -10 -11 47 0.62 4.47
 10 -11 -47 2.94 4.55
 1 12 -47 6.11 4.32
 12 -1 -47 5.8 4.13
 -12 1 -47 4.05 3.45
 -12 -1 -47 -2.8 3.57
 -1 -12 47 3.09 4.15
 -12 3 -47 8.05 3.53
 3 12 -47 2.68 4.53
 3 -12 47 -2.97 4.43
 12 3 -47 2.17 3.86
 -12 -3 -47 7.29 3.58
 -3 -12 47 -5.76 4.49
 -12 5 -47 -3.93 3.48
 12 -5 -47 9.1 4.06
 5 12 -47 8.34 4.44
 5 -12 47 -3.61 4.31
 -12 -5 -47 -3.31 3.37
 12 5 -47 -5.81 4.03
 -5 -12 47 -1.87 4.58
 12 -7 -47 1.84 4.55
 7 12 -47 5.21 4.34
 7 -12 -47 -1.51 4.04
 -12 -7 -47 4.38 3.5
 12 7 -47 10.15 4.43
 -7 -12 47 -1.46 4.5
 9 12 -47 3.11 4.41
 12 -9 -47 8.05 4.23
 12 9 -47 3.98 4.55
 9 -12 -47 4.16 4.47
 -9 -12 47 2.5 4.18
 -12 -9 -47 8.84 3.48
 11 12 -47 1.77 4.69
 12 -11 -47 -0.16 4.28
 -12 -11 47 -2.02 3.53
 -11 -12 47 -3.42 3.95
 11 -12 -47 -9.56 4.03
 0 -13 47 -4.17 4.43
 -13 0 -47 5.52 3.37
 13 0 -47 7.69 3.94
 -13 2 -47 6.74 3.49
 2 -13 47 -0.6 4.42
 2 13 -47 10.42 4.5
 13 -2 -47 3.39 3.94
 13 2 -47 10.55 3.91
 -13 -2 -47 11.9 3.63
 -2 -13 47 8.06 4.21
 13 -4 -47 0.92 4.25
 4 -13 47 2.21 4.46
 4 13 -47 14.71 4.72
 -13 4 -47 4.98 3.54
 -13 -4 -47 5.69 3.47
 13 4 -47 9.02 4.13
 13 -6 -47 0.4 4.04
 6 13 -47 3.43 4.46
 6 -13 47 -2.08 4.18
 -13 -6 -47 -0.04 3.38
 13 6 -47 2.41 4.3
 -6 -13 47 4.26 3.95
 8 13 -47 8.74 4.52
 13 -8 -47 7.25 4.52
 8 -13 -47 -8.09 4.12
 13 8 -47 0.48 4.28
 -8 -13 47 8.64 4.09
 -13 -8 -47 0.58 3.52
 10 13 -47 2.83 4.63
 13 -10 -47 5.21 4.73
 -13 -10 47 -4.87 4.03
 10 -13 -47 -0.85 4.22
 -10 -13 47 -3.17 4.32
 13 10 -47 6.01 4.38
 12 13 -47 5.22 5.1
 -13 -12 47 -6.98 3.63
 13 -12 -47 -3.85 4.45
 -12 -13 47 -5.88 3.84
 13 12 -47 1.07 4.83
 12 -13 -47 -2.39 4.51
 1 -14 47 -2.8 4.58
 1 14 -47 4.57 4.34
 14 -1 -47 0.94 4.25
 -14 1 -47 4.28 3.52
 -1 -14 47 5.89 4.38
 14 1 -47 -1.83 4.15
 -14 -1 -47 2.24 3.47
 14 -3 -47 -2.77 3.88
 3 14 -47 0.61 4.46
 -14 3 -47 1.43 3.41
 3 -14 47 -7.08 4.2
 14 3 -47 1.05 4.02
 -14 -3 -47 -3.24 3.51
 -3 -14 47 2.66 4.63
 14 -5 -47 0.36 4.29
 5 14 -47 5.33 5
 -14 5 -47 2.18 3.38
 -14 -5 -47 -2.74 3.42
 -5 -14 47 -4.4 4.59
 14 5 -47 4.47 4.09
 7 -14 47 -4.08 4.23
 14 -7 -47 8.9 4.01
 7 14 -47 4.41 4.77
 -7 -14 47 -5.38 4.33
 14 7 -47 -4.38 4.07
 -14 -7 -47 3.25 3.4
 14 -9 -47 -0.84 4.19
 9 14 -47 -1.87 4.76
 9 -14 47 -5.94 4.15
 -9 -14 47 -2.93 3.86
 -14 -9 -47 -0.78 3.53
 14 9 -47 6.68 4.23
 11 14 -47 4.99 4.98
 14 -11 -47 -2.11 4.18
 -14 -11 47 0.09 4
 -11 -14 47 3.48 4.28
 14 11 -47 6.19 4.35
 11 -14 -47 1.95 4.19
 15 0 -47 12.84 3.93
 -15 0 -47 14.88 3.54
 0 -15 47 8.31 4.65
 2 -15 47 0.05 4.46
 -15 2 -47 9.34 3.6
 15 -2 -47 3.73 4.33
 15 2 -47 -7.74 3.64
 -2 -15 47 -1.61 4.52
 15 -4 -47 2.16 3.86
 -15 4 -47 4.41 3.28
 4 -15 47 0.71 4.31
 -4 -15 47 11.56 4.33
 -15 -4 -47 4.08 3.55
 15 4 -47 -1.83 4.03
 15 -6 -47 5.13 4.5
 -15 6 -47 1.65 3.08
 6 -15 47 -5.13 4.24
 6 15 -47 -0.32 5.08
 15 6 -47 -3.2 4.3
 -6 -15 47 -6.12 4.38
 15 -8 -47 -2.84 4.25
 8 15 -47 4.7 4.93
 15 8 -47 5.31 4.55
 -15 -8 -47 1.25 3.47
 -8 -15 47 4.8 4.49
 10 -15 47 -6.09 4.13
 15 -10 -47 -0.12 4.28
 10 15 -47 2.83 4.94
 15 10 -47 5.7 4.72
 -15 -10 -47 -2.66 3.48
 -10 -15 47 1.01 3.77
 1 -16 47 9.41 4.68
 -16 1 -47 3.96 3.5
 16 -1 -47 -2.82 3.78
 16 1 -47 5.65 3.98
 -1 -16 47 0.32 4.36
 -16 -1 -47 0.37 3.27
 16 -3 -47 2.26 4.37
 -16 3 -47 8.53 3.26
 -3 -16 47 -0.22 4.3
 16 3 -47 0.5 4.31
 -16 -3 -47 3.01 3.63
 -16 5 -47 5.98 2.94
 5 -16 47 0.33 4.26
 16 -5 -47 -0.03 3.88
 -16 -5 -47 5.93 3.61
 16 5 -47 3.7 4.31
 -5 -16 47 -6.06 4.13
 7 -16 47 -5.18 4.26
 16 -7 -47 0.74 4.04
 -16 -7 -47 4.89 3.51
 16 7 -47 10.24 4.24
 -7 -16 47 1.17 4.15
 9 -16 47 -1.26 4.02
 16 -9 -47 10.42 4.3
 -9 -16 47 7.45 4.41
 -16 -9 -47 -6.65 3.41
 16 9 -47 1.65 4.11
 -17 0 -47 9.16 3.28
 0 -17 47 1.91 4.4
 17 0 -47 1.19 4.07
 2 -17 47 9.97 4.8
 -17 2 -47 8.25 3.14
 17 -2 -47 -0.51 3.86
 -2 -17 47 5.37 4.75
 -17 -2 -47 2.59 3.29
 17 2 -47 1.45 4.03
 17 -4 -47 4.04 4.25
 4 -17 47 -7.6 4.36
 -17 -4 -47 -0.45 3.51
 17 4 -47 1.56 4.03
 -4 -17 47 -4.3 4.64
 17 -6 -47 1.23 4.09
 6 -17 47 2.49 4.38
 -6 -17 47 5.79 4.32
 17 6 -47 5.96 4.14
 -17 -6 -47 -3.74 3.52
 17 -8 -47 -7.87 4
 8 -17 47 -2.69 4.24
 -17 -8 -47 -2.61 3.44
 -8 -17 47 1.13 4.27
 17 8 -47 2.42 4.55
 18 -1 -47 -0.66 4.04
 1 -18 47 -2.07 4.56
 -1 -18 47 -5.25 4.79
 18 1 -47 6.68 3.91
 3 -18 47 -2.53 4.74
 18 -3 -47 5.3 3.99
 18 3 -47 2.87 4.09
 -3 -18 47 3.02 4.85
 18 -5 -47 -0.41 4.03
 5 -18 47 -1.65 4.52
 -5 -18 47 1.11 4.72
 18 5 -47 4.68 4.51
 0 0 -48 35.37 4.11
 1 -1 -48 -7.55 3.85
 1 1 -48 -0.91 3.69
 -1 -1 -48 -0.87 3.67
 0 -2 -48 1.41 3.66
 2 0 -48 1.02 3.68
 0 2 -48 3.93 3.78
 2 -2 -48 1.75 3.96
 2 2 -48 6.58 3.86
 1 3 -48 5 3.46
 -1 -3 -48 -3.1 3.62
 3 -1 -48 -2.16 3.77
 1 -3 -48 1.03 3.61
 3 1 -48 -0.49 3.81
 3 3 -48 -0.74 3.43
 3 -3 -48 4.32 4.12
 4 0 -48 14.91 4.02
 0 -4 -48 16.63 4.04
 0 4 -48 21.65 3.89
 2 4 -48 4.62 3.63
 -2 -4 -48 -0.66 3.71
 4 -2 -48 2.99 3.78
 4 2 -48 2.03 3.79
 2 -4 -48 3.61 4
 4 4 -48 8.72 3.71
 4 -4 -48 3.24 4.06
 1 5 -48 8.6 3.87
 5 -1 -48 -3.35 3.93
 -1 -5 -48 -3.64 4.1
 5 1 -48 4.5 3.93
 1 -5 -48 -3.15 4.04
 5 -3 -48 7.96 3.98
 -3 -5 -48 0.23 3.41
 3 5 -48 2.66 4.15
 3 -5 -48 -3.47 4.32
 5 3 -48 1.64 3.56
 5 -5 -48 -6 4.04
 5 5 -48 1.63 3.96
 6 0 -48 0.85 3.81
 0 6 -48 10.02 3.89
 0 -6 -48 0.94 4.33
 -2 -6 -48 1.33 3.85
 6 -2 -48 -3.74 4.11
 2 6 -48 3.61 3.77
 2 -6 -48 -4.33 4.01
 6 2 -48 -4.66 3.56
 4 6 -48 3.63 3.9
 6 -4 -48 -3.12 4.18
 6 4 -48 -0.98 3.98
 4 -6 -48 4.91 4.1
 6 -6 -48 -3.88 4.14
 6 6 -48 0.76 3.78
 -1 -7 -48 -9.58 4.18
 7 -1 -48 7.07 3.78
 1 7 -48 1.2 4.22
 7 1 -48 6.14 3.97
 1 -7 -48 -4.72 4.1
 -3 -7 -48 -7.49 3.56
 3 7 -48 1.79 4.01
 7 -3 -48 -0.42 3.91
 7 3 -48 -0.44 4.02
 3 -7 -48 4.8 4.45
 5 7 -48 9.06 3.99
 7 -5 -48 -4.56 4.16
 5 -7 -48 -3.41 4.7
 7 5 -48 1.15 3.84
 7 7 -48 -1.51 4.11
 7 -7 -48 6.63 4.54
 8 0 -48 15.49 4.22
 0 -8 -48 16.41 4.42
 2 8 -48 7.95 4.07
 -2 -8 -48 -2.19 3.89
 8 -2 -48 4.87 4.24
 8 2 -48 4.21 3.77
 2 -8 -48 -1.09 4.39
 4 8 -48 10.3 4.25
 8 -4 -48 3.57 4.3
 8 4 -48 12.69 3.69
 -8 -4 -48 6.86 4.12
 4 -8 -48 9.98 4.45
 6 8 -48 12.82 4.4
 8 -6 -48 1.79 4.01
 8 6 -48 4.51 4.12
 6 -8 -48 0.76 4.61
 8 -8 -48 3.81 4.75
 8 8 -48 6.41 4.45
 9 -1 -48 -1.21 3.76
 -1 -9 -48 -3.84 4.39
 -9 -1 -48 -4.55 3.42
 1 -9 -48 2.04 4.23
 9 1 -48 1.28 3.72
 3 9 -48 6.89 4.18
 9 -3 -48 3.32 3.88
 3 -9 -48 6.8 4.18
 -9 -3 -48 3.04 3.44
 9 3 -48 6.95 3.66
 5 9 -48 3.57 4.5
 9 -5 -48 0.97 4.37
 9 5 -48 1.58 4.15
 -9 -5 -48 4.33 3.2
 5 -9 -48 4.15 4.29
 9 -7 -48 -1.48 4.22
 7 9 -48 6.24 4.44
 7 -9 -48 2.48 4.43
 -9 -7 -48 -1.7 4.46
 9 7 -48 -2.79 4.4
 9 9 -48 1.11 4.2
 9 -9 -48 -2.16 4.68
 0 -10 -48 -6.23 4.06
 -10 0 -48 -5.28 3.42
 10 0 -48 3.07 4.27
 -2 -10 -48 13.33 4.42
 10 -2 -48 4.37 4.3
 2 10 -48 6.76 4.32
 10 2 -48 4.45 4.21
 2 -10 -48 7.07 4.06
 -10 -2 -48 -0.45 3.43
 10 -4 -48 -3.75 3.96
 4 10 -48 -0.98 4.07
 10 4 -48 -3.84 4.06
 -10 -4 -48 -0.57 3.27
 -4 -10 48 -2.52 4.66
 4 -10 -48 -0.67 4.13
 6 10 -48 4.2 4.19
 10 -6 -48 -5.22 4.17
 -6 -10 48 8.54 4.56
 -10 -6 -48 0.61 3.32
 6 -10 -48 9.14 4.13
 10 6 -48 3.88 4.06
 10 -8 -48 7.8 4.26
 8 10 -48 2.05 4.2
 8 -10 -48 3.89 4.46
 10 8 -48 2.15 3.94
 -8 -10 48 -6.91 4.48
 -10 -8 -48 8.46 3.3
 10 10 -48 7.65 4.17
 -10 -10 48 1.1 4.21
 10 -10 -48 -2.24 4.45
 1 11 -48 6.39 3.95
 11 -1 -48 -0.46 3.77
 1 -11 48 -7.46 4.45
 -11 1 -48 -4.26 3.37
 11 1 -48 -1.23 3.66
 -11 -1 -48 3.97 3.5
 -1 -11 48 -6.65 4.57
 11 -3 -48 -1.1 4.09
 3 11 -48 -0.01 4.39
 3 -11 -48 -3.17 4.21
 -11 -3 -48 -0.17 3.43
 11 3 -48 0.64 3.66
 -3 -11 48 -5.01 4.08
 11 -5 -48 5.32 4.24
 5 11 -48 8.07 4.11
 5 -11 -48 -4.05 4.03
 -11 -5 -48 -0.57 3.32
 -5 -11 48 -0.24 4.22
 11 5 -48 5.17 3.89
 11 -7 -48 -3.58 4.18
 7 11 -48 1.75 4.21
 -11 -7 -48 1.61 3.37
 7 -11 -48 5.58 4.25
 11 7 -48 3.63 4.08
 -7 -11 48 2.7 4.06
 9 11 -48 10.86 4.12
 11 -9 -48 10 4.11
 -11 -9 -48 5.86 3.43
 11 9 -48 5.19 4.24
 9 -11 -48 -3.05 4.6
 11 11 -48 6.28 4.48
 -11 -11 48 -4.12 4.34
 11 -11 -48 2.82 4.25
 12 0 -48 7.15 4.33
 0 -12 48 -2.09 4.21
 2 12 -48 3.4 4.13
 -12 2 -48 -2.54 3.66
 2 -12 48 -1.71 4.29
 12 -2 -48 3.32 3.97
 -12 -2 -48 -1.98 3.49
 -2 -12 48 -3.65 4.42
 12 2 -48 -0.68 4.12
 -12 4 -48 -3.66 3.62
 4 12 -48 2.45 4.49
 4 -12 48 1.78 4.37
 12 -4 -48 -4.83 3.87
 -4 -12 48 0.15 4.45
 -12 -4 -48 -2.65 3.51
 12 4 -48 2.85 4.25
 6 12 -48 11.67 4.31
 -6 -12 48 0.67 4.33
 -12 -6 -48 6.74 3.49
 12 6 -48 10.23 4.52
 8 12 -48 1.09 4.15
 12 -8 -48 -1.44 4.46
 12 8 -48 0.36 4.54
 8 -12 -48 4.07 4.49
 -8 -12 48 -1.06 4.47
 -12 -8 -48 1.78 3.5
 12 -10 -48 -0.12 4.41
 10 12 -48 0.64 4.5
 -10 -12 48 -3.39 3.93
 -12 -10 -48 -0.89 3.42
 10 -12 -48 -6.5 4.18
 12 12 -48 0.76 4.93
 -12 -12 48 0.67 4.11
 12 -12 -48 -2.79 4.58
 1 13 -48 13.07 4.58
 13 -1 -48 3.24 4.06
 -13 3 -48 1.26 3.62
 3 13 -48 7.32 4.34
 13 -3 -48 2.71 4.25
 3 -13 48 -6.58 4.27
 13 3 -48 -2 3.73
 -13 -3 -48 -2.54 3.44
 -3 -13 48 -3.65 4.05
 5 -13 48 -2.59 4.27
 5 13 -48 4.6 4.56
 13 -5 -48 3.51 3.96
 -13 5 -48 -3.05 3.5
 13 5 -48 2.08 3.98
 -13 -5 -48 4.69 3.42
 -5 -13 48 2.56 4.19
 13 -7 -48 -0.46 4.25
 7 13 -48 2.11 4.39
 -13 -7 -48 3.31 3.41
 13 7 -48 5.96 4.12
 -7 -13 48 -0.07 3.87
 7 -13 -48 -1.42 4.28
 9 13 -48 16.27 4.48
 13 -9 -48 9.88 4.52
 -13 -9 -48 7.21 3.66
 13 9 -48 1.09 4.18
 9 -13 -48 5.11 4.23
 -9 -13 48 0.47 4.1
 -13 -11 48 -0.74 3.59
 13 -11 -48 -1.41 4.46
 -11 -13 48 -2.95 4
 11 -13 -48 2.19 4.29
 13 11 -48 -2.16 4.52
 0 14 -48 19.23 4.27
 -14 0 -48 13.08 3.58
 2 -14 48 3.23 4.33
 14 -2 -48 6.99 3.93
 -14 2 -48 9.02 3.46
 2 14 -48 2.12 4.62
 -2 -14 48 12.08 4.64
 14 2 -48 9.75 4.12
 -14 -2 -48 10.47 3.62
 14 -4 -48 0.3 4.28
 4 -14 48 9.76 4.3
 4 14 -48 3.57 4.76
 14 4 -48 -2.29 4.27
 -14 -4 -48 8.32 3.49
 -4 -14 48 -1.61 4.7
 -14 6 -48 -0.78 3.28
 6 -14 48 -3.32 4.2
 14 -6 -48 -3.79 3.95
 6 14 -48 6 4.79
 -14 -6 -48 4.14 3.48
 14 6 -48 9.92 4.32
 -6 -14 48 -7.29 4.61
 8 -14 48 5.63 4.18
 8 14 -48 9.45 4.7
 14 8 -48 -4.26 4.17
 -14 -8 -48 4.82 3.47
 -8 -14 48 -0.91 4.32
 14 -10 -48 2.29 4.08
 14 10 -48 -0.11 4.18
 -14 -10 -48 -4.97 3.57
 -10 -14 48 -0.66 3.71
 10 -14 -48 -1.1 4
 15 -1 -48 3.82 4.1
 1 -15 48 6.64 4.35
 -15 1 -48 0.9 3.42
 -1 -15 48 0.15 4.7
 15 1 -48 6.87 4.01
 -15 -1 -48 -0.96 3.34
 -15 3 -48 6.3 3.39
 15 -3 -48 -3.41 3.87
 -15 -3 -48 2.24 3.6
 -3 -15 48 3.31 4.29
 15 -5 -48 2.46 4.18
 -15 5 -48 3.27 3.13
 5 15 -48 -3.15 5.03
 5 -15 48 -0.16 4.23
 -5 -15 48 -0.54 4.14
 -15 -5 -48 4.87 3.55
 15 5 -48 4.74 4.08
 7 -15 48 -2.86 4.06
 15 -7 -48 1.48 4.34
 7 15 -48 1.4 4.85
 15 7 -48 8.93 4.25
 -15 -7 -48 1.13 3.47
 -7 -15 48 3.86 4.41
 15 -9 -48 -0.74 4.21
 9 15 -48 -9.9 4.77
 9 -15 48 -4.44 4.17
 -9 -15 48 3.17 4.26
 15 9 -48 3.95 4.63
 -15 -9 -48 1.08 3.54
 16 0 -48 -6.81 3.75
 0 -16 48 0.24 4.54
 -16 0 -48 -7.47 3.41
 -16 2 -48 7.44 3.27
 16 -2 -48 7.59 4.3
 2 -16 48 0.63 4.41
 -2 -16 48 -3.11 4.29
 16 2 -48 2.66 3.89
 -16 -2 -48 7.73 3.43
 16 -4 -48 1.15 3.88
 4 -16 48 -2.48 4.32
 16 4 -48 1.94 4.39
 -4 -16 48 -4 4.27
 -16 -4 -48 -1.11 3.5
 16 -6 -48 -1.29 4.03
 16 6 -48 7.64 4.36
 -16 -6 -48 4.09 3.58
 -6 -16 48 6.94 4.11
 16 -8 -48 -4.89 4.24
 8 -16 48 -8.38 4.15
 16 8 -48 1.63 4.14
 -8 -16 48 0.08 4.23
 -16 -8 -48 -3.57 3.46
 17 -1 -48 0.92 3.82
 -17 1 -48 1.68 5.26
 1 -17 48 2.68 4.49
 17 1 -48 -3.65 3.96
 -17 -1 -48 5.64 3.81
 -1 -17 48 -5.76 4.44
 3 -17 48 -3.08 4.35
 17 -3 -48 4.41 4.13
 -17 -3 -48 6.21 3.48
 17 3 -48 -4.93 4.2
 -3 -17 48 -1.76 4.58
 5 -17 48 6.42 4.38
 17 -5 -48 -0.68 4.09
 -5 -17 48 10.21 4.51
 17 5 -48 5.35 4.06
 -17 -5 -48 1.79 3.62
 0 -18 48 -3.61 4.69
 18 0 -48 3.1 4.09
 18 -2 -48 7.18 3.94
 2 -18 48 5.34 4.57
 18 2 -48 -2.38 3.93
 -2 -18 48 0.02 4.75
 -1 0 -49 27.32 3.77
 0 1 -49 20.06 4.09
 0 -1 -49 16.27 3.76
 1 0 -49 22.76 3.92
 2 -1 -49 18.74 3.89
 1 2 -49 26.88 3.83
 2 1 -49 20.88 4.07
 1 -2 -49 18.58 4
 -2 -1 -49 21.6 3.42
 3 0 -49 6.62 4.16
 0 3 -49 8.86 3.54
 0 -3 -49 9.39 4.09
 -2 -3 -49 17.21 3.65
 3 -2 -49 16.25 3.9
 2 3 -49 13.03 3.62
 2 -3 -49 5.2 3.91
 3 2 -49 8.85 3.62
 -1 -4 -49 11.93 3.85
 4 -1 -49 17.63 4.2
 1 4 -49 23.41 3.95
 1 -4 -49 21.25 4.31
 4 1 -49 16.66 3.91
 3 4 -49 17.34 4.09
 4 -3 -49 8.74 4.23
 -3 -4 -49 7.78 3.32
 3 -4 -49 5.98 3.85
 4 3 -49 7.74 3.72
 5 0 -49 27.3 4.05
 0 -5 -49 39.44 4.41
 0 5 -49 39.27 4
 5 -2 -49 69.59 4.92
 2 5 -49 59.2 4.73
 2 -5 -49 63.52 4.98
 4 5 -49 54.27 4.66
 5 -4 -49 53.07 4.9
 5 4 -49 65.8 4.78
 4 -5 -49 64.89 5.17
 1 6 -49 29.27 4.16
 -3 -6 -49 11.57 3.66
 6 -3 -49 13.02 3.99
 3 6 -49 18.34 3.89
 3 -6 -49 14.32 4.18
 6 3 -49 10.5 3.93
 6 -5 -49 55.11 5.02
 5 6 -49 54.98 4.41
 5 -6 -49 42.23 4.6
 7 0 -49 3.83 4.25
 0 -7 -49 9.47 4.3
 2 7 -49 23.35 4.44
 -7 2 -49 15.77 3.25
 7 -2 -49 19.73 4.44
 7 2 -49 25.38 4.01
 2 -7 -49 21.78 4.28
 7 -4 -49 17.73 4.34
 4 7 -49 19.6 4.21
 4 -7 -49 13.15 4.46
 7 4 -49 8.3 3.57
 7 -6 -49 14.7 4.12
 7 6 -49 22.48 4.12
 6 -7 -49 21.55 4.54
 8 -1 -49 3.27 3.75
 1 8 -49 6.86 3.86
 -1 -8 -49 -4.87 4.15
 8 1 -49 0.41 3.65
 1 -8 -49 -5.46 4.23
 8 -3 -49 -4.55 3.77
 8 3 -49 -6.64 3.55
 3 -8 -49 -5.36 4.51
 -8 -3 -49 0.64 3.21
 5 8 -49 6.84 4.37
 8 -5 -49 4.67 4.37
 8 5 -49 1.53 3.98
 8 -7 -49 5.26 4.29
 7 8 -49 9.31 4.38
 8 7 -49 13.69 4.47
 7 -8 -49 10.91 4.73
 0 -9 -49 104.62 7.38
 2 9 -49 153.11 8.65
 -2 -9 -49 140.93 8.64
 9 -2 -49 153.61 8.32
 9 2 -49 156.93 8.12
 2 -9 -49 149.91 8.65
 -9 4 -49 99.16 5.82
 4 9 -49 96.41 7.34
 9 -4 -49 118.84 7.37
 -4 -9 -49 102.25 7
 -9 -4 -49 113.27 6.58
 4 -9 -49 123.01 7.68
 6 9 -49 87.93 7.19
 9 -6 -49 83.25 7.02
 -9 -6 -49 101.58 6.04
 9 6 -49 100.71 7.07
 6 -9 -49 106.45 7.49
 9 -8 -49 10.11 4.34
 8 9 -49 8.66 4.26
 8 -9 -49 7.95 4.73
 9 8 -49 4.94 4.09
 1 10 -49 9.68 4.24
 10 -1 -49 -2.27 3.78
 -1 -10 -49 -8.23 4.16
 1 -10 -49 4.18 4.44
 10 1 -49 -1.41 3.8
 -10 -1 -49 -5.7 3.43
 10 -3 -49 -2.89 3.84
 -3 -10 -49 -4.52 3.95
 3 10 -49 1.41 4.14
 10 3 -49 1.74 3.77
 3 -10 -49 1.06 4.22
 -10 -3 -49 -4.64 3.35
 10 -5 -49 -2.4 4.38
 5 10 -49 0.31 4.12
 5 -10 -49 -5.77 4.28
 -10 -5 -49 1.64 3.31
 10 5 -49 7.8 3.91
 7 10 -49 7.83 4.2
 7 -10 -49 10.57 4.61
 10 7 -49 13.91 4.03
 -10 -7 -49 14.04 3.43
 10 -9 -49 -1.65 4.28
 9 10 -49 8.13 4.11
 10 9 -49 5.2 4.06
 9 -10 -49 -4.21 4.54
 0 11 -49 28.86 4.34
 11 0 -49 24.07 4.32
 2 11 -49 24.67 4.47
 11 2 -49 22.47 3.98
 -11 -2 -49 18.91 3.72
 -2 -11 49 16.23 4.51
 2 -11 -49 18.1 4.26
 11 -4 -49 10.24 4.03
 4 11 -49 18.4 4.24
 -11 -4 -49 18.14 3.59
 -4 -11 49 13.33 4.41
 4 -11 -49 11.32 4.37
 11 -6 -49 20.29 4.61
 6 11 -49 14.42 4.2
 11 6 -49 11.6 4.25
 -11 -6 -49 19.04 3.6
 -6 -11 49 16.77 4.52
 6 -11 -49 17.66 4.41
 11 -8 -49 10.8 4.19
 8 11 -49 2.99 4.11
 8 -11 -49 7.87 4.67
 -8 -11 49 4.3 4.18
 -11 -8 -49 11.17 3.6
 11 8 -49 0.26 4.19
 11 -10 -49 10.22 4.33
 10 11 -49 8.97 4.31
 10 -11 -49 12.32 4.2
 11 10 -49 10.29 4.42
 -10 -11 49 4.05 3.82
 12 -1 -49 1.92 3.91
 -12 1 -49 6.64 3.51
 1 -12 49 4.44 4.57
 12 1 -49 -4.73 3.76
 -1 -12 49 -0.2 4.31
 -12 -1 -49 1.79 3.57
 3 12 -49 16.6 4.67
 3 -12 49 12.95 4.64
 12 -3 -49 14.26 4.27
 12 3 -49 10.31 4.03
 -3 -12 49 20.94 4.59
 -12 -3 -49 6.14 3.5
 -12 5 -49 5.01 3.64
 12 -5 -49 17.13 4.08
 5 12 -49 15 4.48
 -5 -12 49 15.51 4.19
 5 -12 -49 11.87 4.21
 -12 -5 -49 10.37 3.57
 12 5 -49 11.53 4.28
 7 12 -49 36.93 4.61
 7 -12 -49 46.62 5.1
 -12 -7 -49 50.4 4.25
 12 7 -49 49.92 4.98
 12 -9 -49 18.72 4.62
 -12 -9 -49 19.49 3.63
 -9 -12 49 18.16 4.66
 9 -12 -49 16.9 4.43
 12 9 -49 27.74 4.74
 12 -11 -49 46.1 5.08
 11 12 -49 36.43 4.96
 -12 -11 49 37.35 4.69
 11 -12 -49 39.34 4.82
 12 11 -49 36.42 5.14
 0 -13 49 104.23 7.16
 13 0 -49 90.25 6.92
 -13 0 -49 95.01 6.26
 13 -2 -49 107.23 7.19
 -13 2 -49 111.62 6.58
 2 13 -49 97.89 7.87
 2 -13 49 96.35 7.42
 13 2 -49 107.73 7.03
 4 -13 49 86.49 5.77
 -13 4 -49 84.59 6.21
 13 4 -49 83.98 7.01
 -13 -4 -49 83.78 6.16
 -4 -13 49 76.4 5.68
 6 13 -49 47.85 4.96
 -13 6 -49 50.4 4.09
 6 -13 -49 56.68 5.11
 -13 -6 -49 48.09 4.2
 13 6 -49 41.54 4.47
 13 -8 -49 5.74 4.37
 -8 -13 49 -0.41 3.85
 13 8 -49 4.41 4.08
 8 -13 -49 -0.83 4.16
 -13 -8 -49 -5.6 3.47
 10 13 -49 4.21 4.51
 13 -10 -49 7.9 4.37
 -10 -13 49 -0.86 4
 -13 -10 -49 4.15 3.51
 -14 1 -49 -3.41 3.56
 1 -14 49 4.73 4.44
 14 -1 -49 -6.73 3.87
 14 1 -49 -1.2 3.66
 -1 -14 49 -0.86 4.36
 -14 -1 -49 -3.97 3.45
 3 -14 49 -2.53 4.25
 -14 3 -49 10.8 3.61
 14 -3 -49 2.41 4.08
 3 14 -49 9.95 4.44
 -3 -14 49 3.1 4.64
 14 3 -49 3.4 4.05
 -14 -3 -49 9.14 3.57
 14 -5 -49 10.44 4.18
 5 -14 49 -0.89 4.34
 -14 5 -49 1.68 3.4
 5 14 -49 7.18 4.88
 -14 -5 -49 0.65 3.45
 14 5 -49 11.56 4.48
 -5 -14 49 2.64 4.46
 7 -14 49 10.05 4.33
 14 -7 -49 13.84 3.93
 7 14 -49 15.03 4.69
 -14 -7 -49 15.72 3.68
 14 7 -49 22.71 4.45
 -7 -14 49 21.11 4.72
 9 14 -49 12.92 4.59
 14 -9 -49 4.13 4.08
 9 -14 -49 11.05 4.08
 -9 -14 49 11.09 4.18
 -14 -9 -49 14.85 3.58
 14 9 -49 10.09 4.25
 15 0 -49 -1.98 3.92
 -15 0 -49 4.43 3.5
 0 -15 49 -8.81 4.47
 15 -2 -49 0.03 3.9
 2 -15 49 -3.81 4.31
 -15 2 -49 8.03 3.49
 15 2 -49 -4.12 4.13
 -2 -15 49 3.55 4.37
 -15 -2 -49 6.34 3.58
 4 -15 49 -3.54 4.13
 15 -4 -49 -1.88 4.05
 4 15 -49 -8.17 4.72
 -15 4 -49 4.09 3.3
 15 4 -49 3.45 3.98
 -15 -4 -49 0.72 3.48
 -4 -15 49 3.99 4.12
 15 -6 -49 -3.31 4.3
 6 -15 49 4.79 4.28
 6 15 -49 0.65 4.83
 -15 -6 -49 1.36 3.46
 -6 -15 49 -4.54 4.03
 15 6 -49 2.16 3.95
 8 15 -49 12.17 4.78
 15 -8 -49 -1.73 4.23
 8 -15 49 3.21 4.18
 15 8 -49 15.12 4.41
 -15 -8 -49 8.25 3.53
 -8 -15 49 7.13 4.37
 16 -1 -49 -2.16 4.06
 1 -16 49 -5.12 4.51
 -16 1 -49 6.58 3.62
 -16 -1 -49 1.37 3.47
 -1 -16 49 4.96 4.29
 16 1 -49 0.24 3.77
 3 -16 49 6.75 4.45
 16 -3 -49 13.27 4.05
 -3 -16 49 4.83 4.38
 16 3 -49 8.01 3.9
 5 -16 49 24.4 4.45
 -16 -5 -49 20.3 3.74
 -5 -16 49 13.65 4.45
 17 0 -49 8.79 3.83
 0 -17 49 13.13 4.38
 2 -17 49 23.88 4.71
 17 -2 -49 14.14 4.16
 17 2 -49 15.59 4.18
 -2 -17 49 17.64 4.69
 0 0 -50 2.85 3.68
 -1 -1 -50 6.46 3.77
 1 -1 -50 0.5 3.96
 0 -2 -50 35.18 4.17
 2 0 -50 34.37 4.26
 0 2 -50 41.29 4.09
 -2 0 -50 45.28 3.81
 2 2 -50 -1.75 3.69
 -2 -2 -50 6.41 3.32
 2 -2 -50 6 4.05
 -1 -3 -50 5.03 3.58
 1 3 -50 4.38 3.75
 1 -3 -50 2 3.88
 3 1 -50 6.98 3.66
 3 3 -50 3.71 3.94
 3 -3 -50 9.44 4.08
 4 0 -50 15.12 3.84
 0 -4 -50 11.51 3.77
 0 4 -50 17.68 3.51
 -2 -4 -50 0.05 3.48
 2 4 -50 5.64 3.62
 4 -2 -50 0.88 3.68
 2 -4 -50 7.47 4.11
 4 2 -50 4.16 3.94
 4 4 -50 3.66 3.72
 4 -4 -50 -3.98 3.74
 1 5 -50 2.63 3.74
 5 -1 -50 0.92 4.02
 -1 -5 -50 -3.47 3.79
 5 1 -50 6.44 4.1
 1 -5 -50 2.93 3.87
 5 -3 -50 2.94 3.91
 3 5 -50 4.26 3.67
 -3 -5 -50 4.04 3.45
 5 3 -50 -0.15 3.72
 3 -5 -50 -2.13 4.08
 5 -5 -50 14.98 4.5
 5 5 -50 8.2 3.69
 6 0 -50 48.3 4.61
 0 6 -50 50.64 4.4
 -2 -6 -50 -1.21 3.82
 2 6 -50 7.49 4.03
 6 -2 -50 2.59 4.09
 2 -6 -50 2.97 4.48
 6 -4 -50 17.82 4.11
 4 6 -50 12.94 3.95
 6 4 -50 9.92 3.69
 4 -6 -50 20.75 4.32
 6 -6 -50 -4.47 4.03
 6 6 -50 4.88 4.03
 -1 -7 -50 2.75 4
 1 -7 -50 -0.58 4.41
 7 1 -50 2.76 3.58
 3 7 -50 16.23 4.47
 -3 -7 -50 0.62 3.81
 7 -3 -50 10.32 3.91
 3 -7 -50 5.98 4.07
 7 3 -50 8.17 3.7
 5 7 -50 37.68 4.6
 7 -5 -50 27.96 4.61
 5 -7 -50 24.67 4.55
 7 5 -50 25.17 4.29
 7 7 -50 59.87 5.06
 7 -7 -50 42.24 4.83
 8 0 -50 18.77 4.22
 0 -8 -50 12.87 4.36
 2 8 -50 41.57 4.43
 8 -2 -50 46.11 4.8
 -2 -8 -50 42.99 4.65
 8 2 -50 53.67 4.54
 2 -8 -50 44.95 4.73
 8 -4 -50 18.23 4.3
 -4 -8 -50 15.69 3.86
 4 8 -50 15.54 4.29
 4 -8 -50 12.48 4.61
 8 4 -50 11.62 4.25
 6 8 -50 26.65 4.52
 8 6 -50 32.49 4.54
 6 -8 -50 26.42 4.78
 8 -8 -50 2.67 4.31
 8 8 -50 4.37 4.13
 9 -1 -50 9.02 3.98
 -1 -9 -50 -1.63 4.08
 1 9 -50 6.96 4.24
 -9 -1 -50 -5.31 3.4
 1 -9 -50 -5.55 4.26
 9 1 -50 2.56 3.96
 3 9 -50 12.03 4.03
 -3 -9 -50 -0.99 3.97
 9 -3 -50 -4.08 3.76
 3 -9 -50 14.04 4.7
 -9 -3 -50 2.65 3.36
 9 3 -50 4.62 3.86
 5 9 -50 22.43 4.34
 9 -5 -50 23.6 4.69
 -9 -5 -50 17.71 3.39
 5 -9 -50 30.45 4.96
 9 5 -50 16.87 4.07
 9 -7 -50 35.61 4.38
 -7 9 -50 31.86 3.74
 0 -10 -50 -0.46 4.18
 10 0 -50 2.81 3.8
 -10 0 -50 -4.35 3.38
 10 -2 -50 0.16 4.31
 -2 -10 -50 7.04 4.2
 2 10 -50 8.3 4.45
 2 -10 -50 -5.16 4.56
 -10 -2 -50 -1.81 3.43
 10 2 -50 0.64 3.63
 4 10 -50 13.14 4.12
 10 -4 -50 8.12 4.02
 -10 -4 -50 2.65 3.41
 4 -10 -50 8.11 4.6
 10 4 -50 3.2 3.76
 6 10 -50 3.41 4.12
 10 -6 -50 1.58 4.28
 10 6 -50 9.03 3.97
 6 -10 -50 0.92 4.78
 8 10 -50 10.5 4.15
 10 -8 -50 7.42 4.13
 8 -10 -50 15.62 4.73
 10 8 -50 2.43 4.08
 10 -10 -50 -0.76 4.11
 10 10 -50 5.93 4.22
 11 -1 -50 -3.03 3.85
 -1 -11 -50 -2.48 4.03
 1 11 -50 5.44 3.9
 11 1 -50 -3.07 3.96
 -11 -1 -50 -4.28 3.46
 1 -11 -50 -4.52 4.41
 -11 3 -50 -0.62 3.56
 -3 -11 -50 -0.63 4.22
 11 -3 -50 -2.14 3.87
 3 11 -50 0.96 4.3
 3 -11 -50 -1.01 4.62
 11 3 -50 7.91 4.17
 -11 -3 -50 -1.22 3.43
 11 -5 -50 8.83 4.34
 11 5 -50 14.46 4.35
 -11 -5 -50 5.68 3.49
 5 -11 -50 2.78 4.62
 -5 -11 50 13.98 4.72
 11 -7 -50 16.62 4.48
 7 11 -50 20.29 4.23
 -11 -7 -50 19.3 3.56
 11 7 -50 29.02 4.52
 -7 -11 50 30.23 4.77
 7 -11 -50 27.95 4.82
 -7 11 -50 23.33 3.53
 11 -9 -50 17.85 4.39
 9 11 -50 23 4.33
 -9 -11 50 29.27 4.53
 11 9 -50 38.78 4.62
 -11 -9 -50 31.81 3.68
 11 11 -50 15.21 4.59
 11 -11 -50 16.74 4.56
 -12 0 -50 43.7 4.04
 12 0 -50 40.48 4.27
 0 -12 50 33.13 4.78
 0 12 -50 49.99 4.67
 -12 2 -50 49.95 4.18
 2 12 -50 34.84 4.62
 12 -2 -50 54.1 4.94
 2 -12 -50 46.62 5.14
 -2 -12 50 48.9 5.2
 -12 -2 -50 45.92 4.29
 12 -4 -50 19.03 3.92
 -12 4 -50 12.24 3.77
 4 12 -50 22.96 4.61
 12 4 -50 13.13 3.95
 -4 -12 50 12.02 4.2
 4 -12 -50 17.98 4.69
 -12 -4 -50 16.9 3.66
 6 12 -50 11.94 4.28
 12 -6 -50 5.23 4.29
 -12 -6 -50 6.09 3.42
 6 -12 -50 15.84 4.64
 -6 -12 50 2.43 3.92
 8 12 -50 7.31 4.18
 12 -8 -50 3.53 4.59
 12 8 -50 -4.81 4.3
 -12 -8 -50 7.17 3.44
 8 -12 -50 -3.61 4.22
 -8 -12 50 -2.25 3.85
 10 12 -50 10.09 4.48
 12 -10 -50 9.35 4.65
 12 10 -50 8.4 4.6
 10 -12 -50 2.51 4.21
 -12 -10 -50 10.21 3.62
 -13 1 -50 5.98 3.58
 1 13 -50 10.09 4.48
 13 -1 -50 2.17 3.81
 -13 -1 -50 6.29 3.55
 -1 -13 50 -4.03 4.2
 13 1 -50 -3.85 4.01
 3 -13 50 -1.71 4.23
 13 -3 -50 -5.84 4.2
 -13 3 -50 6.95 3.71
 -13 -3 -50 4.84 3.6
 13 3 -50 0.34 4.13
 -3 -13 50 -1.14 4.33
 -13 5 -50 3.18 3.59
 5 13 -50 12.66 4.5
 13 -5 -50 1.88 3.85
 13 5 -50 5.55 4.06
 -5 -13 50 11.33 4.45
 5 -13 -50 10.29 4.46
 -13 -5 -50 11.57 3.56
 13 -7 -50 6.81 4.18
 13 7 -50 14.88 3.98
 7 -13 -50 9.48 4.2
 13 -9 -50 12.1 4.34
 9 13 -50 21.53 4.51
 -9 -13 50 11.67 3.92
 13 9 -50 16.66 4.13
 -13 -9 -50 13.52 3.71
 9 -13 -50 13.28 4.13
 14 0 -50 1.89 4.25
 -14 0 -50 4.98 3.5
 0 -14 50 2.09 4.21
 14 -2 -50 4.16 3.89
 2 -14 50 -1.4 4.28
 2 14 -50 3.48 4.46
 -14 2 -50 5.69 3.73
 14 2 -50 1.51 3.74
 -14 -2 -50 10.04 3.66
 -2 -14 50 4.51 4.57
 4 14 -50 4.89 4.91
 14 -4 -50 -0.45 4.29
 4 -14 50 0.66 4.23
 -4 -14 50 2.91 4.35
 14 4 -50 3.64 3.99
 -14 -4 -50 3.56 3.57
 14 -6 -50 7.26 3.95
 6 -14 50 3.6 4.35
 -14 6 -50 4.92 3.28
 6 14 -50 3.91 4.63
 -14 -6 -50 4.02 3.4
 14 6 -50 14.6 4.43
 8 14 -50 10.23 4.48
 -8 -14 50 3.35 4.44
 14 8 -50 4.34 4.39
 -14 -8 -50 6.83 3.48
 8 -14 -50 -0.1 4.08
 15 -1 -50 0 3.96
 1 -15 50 -2.13 4.18
 -15 1 -50 -5.46 3.44
 -1 -15 50 0.56 4.44
 -15 -1 -50 0.93 3.46
 15 1 -50 2.04 3.8
 15 -3 -50 6.98 4.01
 3 -15 50 -7.29 4.13
 -15 3 -50 2.51 3.49
 -15 -3 -50 -0.56 3.61
 15 3 -50 -0.34 4.26
 -3 -15 50 -2.49 4.01
 15 -5 -50 -3.94 4.29
 5 -15 50 -6.97 4.17
 5 15 -50 0.14 4.82
 -15 5 -50 -0.66 3.11
 -15 -5 -50 -0.96 3.52
 15 5 -50 -6.21 3.93
 -5 -15 50 2.06 4.01
 0 -16 50 10.93 4.51
 16 0 -50 5.57 4.01
 16 -2 -50 12.64 4.07
 2 -16 50 12.04 4.39
 -2 -16 50 10.34 4.36
 16 2 -50 16.63 4.07
 -16 -2 -50 13.27 3.63
 1 0 -51 -0.92 3.65
 0 1 -51 4.79 3.78
 0 -1 -51 0.61 3.58
 1 2 -51 3.74 3.66
 -1 -2 -51 3.14 3.63
 2 -1 -51 -2.01 3.67
 -2 -1 -51 7.41 3.19
 2 1 -51 0.51 3.9
 1 -2 -51 -4.71 3.67
 0 -3 -51 -1.7 3.8
 0 3 -51 -1.45 3.37
 2 3 -51 2.04 3.51
 3 -2 -51 5.09 3.82
 -2 -3 -51 10.26 3.6
 2 -3 -51 3.02 3.75
 3 2 -51 10.15 3.79
 -1 -4 -51 -2.92 3.98
 1 4 -51 5.8 3.54
 4 -1 -51 2.15 4.13
 1 -4 -51 -2.61 3.86
 4 1 -51 -0.5 3.85
 3 4 -51 3.62 3.53
 4 -3 -51 1.84 4.14
 -3 -4 -51 3.51 3.58
 4 3 -51 -3.39 3.47
 3 -4 -51 -4.56 3.99
 0 5 -51 19.52 3.93
 5 0 -51 12.82 3.96
 -2 -5 -51 5.36 3.83
 2 5 -51 2.44 3.85
 5 -2 -51 4.28 3.86
 2 -5 -51 -3.84 3.81
 5 2 -51 5.59 3.57
 4 5 -51 4.86 3.77
 5 -4 -51 3.19 3.87
 5 4 -51 3.47 3.7
 4 -5 -51 -2.85 4.21
 6 -1 -51 2.5 3.75
 1 6 -51 8.17 3.91
 -1 -6 -51 -6.46 4.2
 6 1 -51 -3.76 3.59
 1 -6 -51 1.93 3.96
 6 -3 -51 -2.6 3.81
 3 6 -51 -7.31 4.05
 -3 -6 -51 -1.33 3.56
 6 3 -51 -4.27 3.52
 3 -6 -51 -1.95 4.55
 6 -5 -51 -1.74 4.45
 5 6 -51 -5.23 4.11
 5 -6 -51 -5.78 4.18
 0 -7 -51 34.37 4.65
 0 7 -51 51.01 4.4
 7 0 -51 40.79 4.58
 -2 -7 -51 25.53 4.51
 7 -2 -51 32.61 4.61
 2 7 -51 38.83 4.39
 7 2 -51 34.71 4.26
 2 -7 -51 35.15 4.7
 4 7 -51 14.77 4.34
 7 -4 -51 12.92 4.2
 7 4 -51 16.31 4.17
 4 -7 -51 12.47 4.21
 6 7 -51 10.03 4.29
 7 -6 -51 10.68 4.18
 7 6 -51 5.48 4.17
 6 -7 -51 4.82 4.05
 1 8 -51 -1.54 4.03
 -1 -8 -51 1.46 4.17
 8 -1 -51 3.93 3.93
 8 1 -51 -2.43 3.9
 1 -8 -51 -3.64 4.29
 3 8 -51 5.42 3.92
 8 -3 -51 -3.36 3.73
 -8 -3 -51 -9.14 4.09
 3 -8 -51 -4.85 4.12
 8 3 -51 0.62 3.83
 5 8 -51 2.16 4.02
 8 -5 -51 -2.16 4.37
 8 5 -51 -5.42 3.89
 5 -8 -51 3.06 4.36
 8 -7 -51 -1.66 4.07
 7 8 -51 -1.57 4.01
 7 -8 -51 7.01 4.29
 8 7 -51 8.91 4.08
 9 0 -51 4.41 3.78
 0 -9 -51 5.48 4.35
 9 -2 -51 12.37 4.16
 2 9 -51 3.57 4.12
 -2 -9 -51 9.74 4.11
 2 -9 -51 5.18 4.18
 9 2 -51 7.62 3.55
 4 9 -51 1.75 3.97
 9 -4 -51 3.58 4.06
 -4 -9 -51 -4.62 3.65
 -9 -4 -51 -2.59 3.33
 4 -9 -51 -0.85 4.43
 9 4 -51 6.2 3.68
 9 -6 -51 -1.56 4.19
 6 9 -51 -2.09 4.06
 6 -9 -51 4.81 4.55
 -9 -6 -51 7.11 3.25
 9 6 -51 0.29 3.86
 8 9 -51 1.85 3.96
 9 -8 -51 -3.56 4.07
 8 -9 -51 -4.79 4.3
 9 8 -51 -0.52 3.88
 1 10 -51 17.37 4.17
 -3 -10 -51 0.49 3.91
 10 -3 -51 7.69 3.85
 3 10 -51 1.97 4.19
 10 3 -51 -4.34 3.9
 3 -10 -51 -2.05 4.36
 5 10 -51 8.84 4.02
 10 -5 -51 -5.31 4.32
 10 5 -51 5.61 4.04
 5 -10 -51 -0.27 4.55
 -10 -5 -51 1.53 3.34
 10 -7 -51 -0.6 4.13
 7 10 -51 -0.62 4.01
 10 7 -51 6.37 4.09
 7 -10 -51 3.34 4.54
 -10 -7 -51 2.63 3.29
 9 10 -51 3.77 4.05
 9 -10 -51 3.38 4.22
 10 9 -51 12.01 4.17
 11 0 -51 8.98 3.75
 -11 0 -51 5.82 3.51
 0 -11 -51 2.73 4.12
 2 11 -51 20.06 4.24
 -2 -11 -51 22.62 4.53
 11 -2 -51 16.09 4.28
 2 -11 -51 7.59 4.4
 -11 -2 -51 13.96 3.68
 -4 -11 -51 2.81 3.69
 11 -4 -51 3.3 3.92
 4 11 -51 3.14 4.18
 -11 -4 -51 3.27 3.46
 4 -11 -51 -1.17 4.42
 11 4 -51 7.91 4.09
 11 -6 -51 0.3 4.45
 6 11 -51 5.51 4.05
 -11 -6 -51 1.71 3.36
 6 -11 -51 3.94 4.39
 8 11 -51 7.89 4.01
 11 -8 -51 13.52 4.43
 -11 -8 -51 6.87 3.47
 11 8 -51 9.58 4.57
 11 -10 -51 3.04 4.46
 -11 -10 -51 15.63 3.52
 11 10 -51 12.44 4.57
 10 -11 -51 9.91 4.43
 12 -1 -51 8.71 4.09
 -1 -12 51 3.55 4.57
 12 1 -51 -1.87 4.07
 1 -12 -51 -2.55 4.06
 -12 -1 -51 -1.9 3.47
 -12 3 -51 -0.58 3.85
 3 12 -51 4.09 4.5
 12 -3 -51 0.59 3.98
 12 3 -51 1.81 3.74
 -3 -12 51 -4.49 4.25
 3 -12 -51 4.61 4.26
 -12 -3 -51 4.93 3.57
 5 12 -51 3.36 4.36
 12 -5 -51 5.92 3.97
 -12 -5 -51 1.23 3.49
 5 -12 -51 -5.62 4.25
 12 5 -51 -1.93 3.77
 -5 -12 51 -4.46 3.99
 7 12 -51 7.97 4.14
 12 -7 -51 -4.57 4.29
 -12 -7 -51 0.19 3.42
 -7 -12 51 -0.24 3.95
 7 -12 -51 -3.83 4.09
 12 7 -51 0.63 4.08
 9 12 -51 2.84 4.34
 12 -9 -51 -2.43 4.52
 9 -12 -51 0.83 4.18
 -12 -9 -51 2.48 3.43
 -9 -12 51 -2.06 3.78
 12 9 -51 0.7 4.34
 0 -13 51 -0.78 4.56
 13 0 -51 -4.47 3.71
 -13 0 -51 2.48 3.5
 13 -2 -51 8.06 4.28
 2 13 -51 8.05 4.21
 2 -13 51 -6.82 4.4
 -13 2 -51 3.2 3.52
 -13 -2 -51 -0.99 3.57
 13 2 -51 -9.07 3.75
 -2 -13 51 -0.65 4.21
 4 13 -51 -4.73 4.58
 -13 4 -51 -7.44 3.57
 13 -4 -51 -4.38 3.88
 4 -13 -51 -5.52 4.11
 -4 -13 51 -0.67 4.48
 -13 -4 -51 3.01 3.62
 13 4 -51 -3.6 4.25
 13 -6 -51 4.67 4
 -13 -6 -51 -0.9 3.43
 -6 -13 51 -4.14 4.56
 13 6 -51 -3.45 4.17
 6 -13 -51 -3.03 3.97
 13 -8 -51 -1.75 4.08
 13 8 -51 -0.94 4.1
 8 -13 -51 -6.76 4.08
 -8 -13 51 -4.74 4.22
 -13 -8 -51 8.19 3.58
 -14 1 -51 -3.54 3.5
 14 -1 -51 3.08 3.74
 1 14 -51 -6.2 4.56
 14 1 -51 -2.45 4.11
 -14 -1 -51 0.69 3.41
 -1 -14 51 -7.85 4.39
 14 -3 -51 3.75 4.28
 3 14 -51 -3.67 4.34
 -14 3 -51 1.53 3.54
 3 -14 51 -3 4.22
 -3 -14 51 -3.88 4.28
 -14 -3 -51 6 3.65
 14 3 -51 -0.89 3.77
 5 14 -51 5.01 4.67
 14 -5 -51 0.24 3.9
 -14 5 -51 -0.33 3.31
 14 5 -51 -5.44 3.99
 -5 -14 51 -1.2 4
 -14 -5 -51 7.27 3.54
 0 -15 51 -3.76 4.43
 15 0 -51 5.75 3.95
 -15 0 -51 -1.63 3.58
 -15 2 -51 4.43 3.64
 2 -15 51 -4.17 4.28
 15 -2 -51 0.22 3.91
 -15 -2 -51 1.35 3.56
 -2 -15 51 2.11 4.05
 15 2 -51 -0.99 3.68
 0 0 -52 86.21 6.37
 1 1 -52 -6.54 3.63
 1 -1 -52 0.79 4.03
 0 2 -52 113.24 6.88
 2 0 -52 107.71 7.01
 0 -2 -52 107.17 6.86
 2 2 -52 128.03 7.4
 2 -2 -52 115.79 7.37
 1 3 -52 1.34 3.54
 3 -1 -52 2.52 3.8
 -1 -3 -52 4.22 3.62
 3 1 -52 -4.3 3.54
 1 -3 -52 5.59 3.98
 3 3 -52 2.44 3.55
 3 -3 -52 3.98 3.94
 0 -4 -52 75.52 5.12
 0 4 -52 75.52 6.02
 2 4 -52 73.98 6.17
 -2 -4 -52 76.02 6.18
 4 2 -52 74.21 4.81
 4 4 -52 40.41 4.34
 4 -4 -52 38.56 4.37
 5 -1 -52 -0.59 3.86
 1 5 -52 0.8 3.71
 -1 -5 -52 1.3 3.7
 1 -5 -52 -9.48 4.19
 5 1 -52 0.62 3.64
 5 -3 -52 0.65 4.05
 -3 -5 -52 1.65 3.31
 3 5 -52 1.19 4.09
 5 3 -52 4.04 3.75
 3 -5 -52 6.39 3.86
 5 5 -52 5.01 4.03
 5 -5 -52 1.64 4.23
 0 -6 -52 64.62 5.27
 0 6 -52 68.76 4.94
 6 0 -52 75.71 5.26
 2 6 -52 58.18 4.68
 -2 -6 -52 55.99 4.57
 2 -6 -52 60.24 4.91
 4 6 -52 38.63 4.48
 6 4 -52 42.63 4.45
 4 -6 -52 38.27 4.92
 6 6 -52 35.24 4.37
 6 -6 -52 43.06 4.7
 1 7 -52 3.15 3.89
 7 -1 -52 2.25 3.89
 -1 -7 -52 6.25 4.14
 7 1 -52 -0.02 3.82
 1 -7 -52 -3.09 4.16
 3 7 -52 1.85 3.96
 -3 -7 -52 -6.56 3.45
 7 -3 -52 3.03 3.78
 7 3 -52 -1.21 3.72
 3 -7 -52 -3.34 4.38
 7 -5 -52 -1.5 4.39
 5 7 -52 4.25 4
 7 5 -52 0.16 3.83
 5 -7 -52 -0.75 4.17
 7 -7 -52 -5.21 4.08
 7 7 -52 1.42 3.93
 0 -8 -52 -2.29 4.21
 2 8 -52 2.71 3.94
 -2 -8 -52 0.98 4.22
 2 -8 -52 3.03 4.4
 8 2 -52 2.09 3.47
 4 8 -52 4.72 3.86
 8 -4 -52 3.73 3.99
 8 4 -52 5.92 3.61
 4 -8 -52 -1.15 4.09
 8 -6 -52 -2.36 4.17
 6 8 -52 2.83 3.91
 8 6 -52 8.22 3.89
 6 -8 -52 -4.26 4.05
 8 8 -52 -0.51 3.9
 8 -8 -52 3.82 4.13
 -1 -9 -52 -4.33 4.13
 1 9 -52 7.4 4.09
 9 -1 -52 -5.15 3.99
 9 1 -52 5.59 4.02
 1 -9 -52 -4.12 4.41
 9 -3 -52 -6.05 3.72
 -3 -9 -52 -3.79 4.12
 3 9 -52 -1.74 4.02
 9 3 -52 6.25 3.83
 3 -9 -52 4.35 4.23
 5 9 -52 -3.07 3.93
 9 -5 -52 -1.46 4.36
 -9 -5 -52 -2.44 3.21
 5 -9 -52 -6 4.29
 9 5 -52 2.79 3.83
 7 9 -52 4.2 3.95
 9 -7 -52 -2.74 4.14
 7 -9 -52 3.74 4.27
 9 7 -52 7.16 3.94
 9 -9 -52 2.96 4.16
 9 9 -52 6.01 4.08
 0 -10 -52 6.08 4.48
 10 0 -52 0.83 3.67
 2 10 -52 8.26 4.31
 10 -2 -52 -2.94 3.95
 -2 -10 -52 -2.66 4.02
 2 -10 -52 1.35 4.21
 -10 -2 -52 1.38 3.47
 10 2 -52 6.07 3.78
 10 -4 -52 5.57 4
 4 10 -52 -9.36 4.09
 -10 -4 -52 -1.02 3.38
 4 -10 -52 -2.48 4.2
 10 4 -52 0.12 4.07
 10 -6 -52 10.09 4.44
 6 10 -52 7.6 4.04
 10 6 -52 0.13 4.37
 -10 -6 -52 -1.19 3.27
 6 -10 -52 1.95 4.28
 8 10 -52 -0.52 4.03
 10 -8 -52 4.64 4.24
 10 8 -52 7.59 4.34
 8 -10 -52 7.77 4.21
 -10 -8 -52 12.74 3.46
 10 -10 -52 1.57 4.3
 10 10 -52 5.02 4.32
 -1 -11 -52 2.09 4.4
 1 11 -52 8.28 3.97
 11 -1 -52 -0.56 4.15
 1 -11 -52 4 4.25
 11 1 -52 -1.78 3.76
 -3 -11 -52 -1.55 3.98
 11 -3 -52 -0.77 3.78
 3 11 -52 8.42 4.44
 3 -11 -52 0.53 4.16
 11 3 -52 3.42 3.59
 -11 -3 -52 -1.68 3.43
 5 11 -52 -1.38 4.13
 11 -5 -52 0.3 4.11
 -11 -5 -52 1.72 3.46
 11 5 -52 4.46 3.94
 5 -11 -52 -3.67 4.16
 11 -7 -52 0.04 4.47
 7 11 -52 5.63 4.02
 7 -11 -52 -0.87 4.15
 -11 -7 -52 -0.88 3.48
 -7 11 -52 0.59 3.29
 11 7 -52 9.96 4.2
 11 -9 -52 16.88 4.57
 9 11 -52 8.61 4.19
 9 -11 -52 6.48 4.42
 -11 -9 -52 10.14 3.5
 11 9 -52 8.2 4.41
 -12 0 -52 33.81 3.91
 0 -12 -52 42.84 4.86
 -12 2 -52 30.44 3.88
 2 12 -52 30.93 4.3
 12 -2 -52 27.01 4.48
 -2 -12 -52 27.98 4.35
 12 2 -52 24.6 4.26
 -12 -2 -52 28.17 3.97
 -12 4 -52 19.79 3.89
 4 12 -52 24.6 4.68
 12 -4 -52 18.49 3.93
 4 -12 -52 13.67 4.23
 12 4 -52 27.84 4.3
 -12 -4 -52 23.63 3.83
 12 -6 -52 13.39 4.2
 6 12 -52 6.27 4.3
 -6 -12 52 11.71 4.44
 12 6 -52 4.45 3.92
 -12 -6 -52 4.41 3.56
 6 -12 -52 3.76 4.08
 -13 1 -52 1.77 3.67
 1 13 -52 6.63 4.38
 13 -1 -52 2.7 3.99
 -13 -1 -52 0.42 3.54
 1 -13 -52 -5.7 4.31
 -1 -13 52 -6.27 4.34
 13 -3 -52 3.4 3.95
 -13 3 -52 5.95 3.68
 3 13 -52 3.99 4.26
 -3 -13 52 -3.88 4.52
 3 -13 -52 -3.17 4.1
 -13 -3 -52 10 3.64
 13 3 -52 1.51 3.72
 5 13 -52 7.84 4.46
 13 -5 -52 -4.37 3.78
 13 5 -52 5.02 4.24
 -13 -5 -52 1.6 3.59
 5 -13 -52 -2.36 4.19
 -5 -13 52 -1.19 4.38
 0 -14 52 23.02 4.48
 -14 0 -52 33.85 3.97
 0 14 -52 33.19 4.28
 2 -14 52 19.16 4.54
 -14 2 -52 26.84 3.96
 2 14 -52 21.23 4.48
 14 -2 -52 30.37 4.48
 -2 -14 52 18.14 4.58
 -14 -2 -52 18.58 3.75
 14 2 -52 29.54 4.23
 0 1 -53 3.38 3.58
 1 0 -53 3.88 3.66
 0 -1 -53 5.98 3.58
 2 -1 -53 -4.3 3.68
 1 2 -53 1.15 3.73
 -1 -2 -53 1.66 3.47
 2 1 -53 -2.52 3.6
 1 -2 -53 -4.58 3.58
 0 3 -53 31.11 3.83
 0 -3 -53 20.15 3.93
 3 0 -53 32.48 4.12
 2 3 -53 28.16 4.07
 3 -2 -53 22.22 4.13
 -2 -3 -53 28.04 3.66
 2 -3 -53 23.97 4.01
 3 2 -53 31.04 4.13
 -1 -4 -53 1.07 3.68
 4 -1 -53 0.37 4.1
 1 4 -53 1.25 3.56
 4 1 -53 -8.71 3.97
 1 -4 -53 -0.13 3.74
 -3 -4 -53 48.42 5.12
 4 -3 -53 31.61 4.46
 3 4 -53 42.34 4.28
 4 3 -53 29.72 4.22
 3 -4 -53 45.1 4.65
 5 0 -53 11.45 4.08
 0 5 -53 18.43 3.69
 5 -2 -53 11.15 3.88
 2 5 -53 4.4 3.7
 -2 -5 -53 3.42 3.57
 2 -5 -53 6.46 4.09
 5 2 -53 9.08 3.8
 5 -4 -53 2.71 3.82
 4 5 -53 6.56 3.81
 4 -5 -53 9.38 3.98
 1 6 -53 4.51 3.89
 6 -1 -53 6.14 3.75
 -1 -6 -53 3.4 3.84
 1 -6 -53 1.25 4.05
 6 -3 -53 10.21 3.88
 -3 -6 -53 2.53 3.44
 3 -6 -53 2.95 4.15
 6 3 -53 8.04 3.68
 5 6 -53 8.3 3.83
 6 -5 -53 2.86 4.2
 6 5 -53 -2.53 3.65
 5 -6 -53 -5.95 4.4
 7 0 -53 89 6.5
 0 -7 -53 83.92 5.65
 7 -2 -53 86.84 6.67
 2 7 -53 82.58 6.94
 2 -7 -53 81.97 5.69
 7 2 -53 92.73 6.66
 4 7 -53 48.9 4.51
 -7 4 -53 56.61 4.21
 6 7 -53 25.64 4.12
 7 -6 -53 42.14 4.73
 6 -7 -53 34.12 4.55
 7 6 -53 32.58 4.14
 -1 -8 -53 8.34 4.22
 1 8 -53 9.08 4.15
 8 -1 -53 0.7 4.03
 1 -8 -53 3.04 4.29
 8 1 -53 -4.29 4
 -3 -8 -53 -6.43 3.64
 3 8 -53 7.58 3.98
 8 -3 -53 0.24 3.72
 8 3 -53 2.54 3.77
 3 -8 -53 0.85 4.43
 8 -5 -53 10.45 4.37
 5 8 -53 2.49 3.9
 8 5 -53 1.94 3.78
 5 -8 -53 1.49 4.21
 7 8 -53 1.82 3.93
 8 -7 -53 0.68 4.17
 8 7 -53 10.27 3.96
 7 -8 -53 3.69 4.25
 0 -9 -53 5.64 4.25
 9 0 -53 11.14 3.77
 9 -2 -53 15.1 4.05
 -2 -9 -53 17.57 4.49
 2 9 -53 21.91 4.39
 9 2 -53 10.55 3.91
 2 -9 -53 5.63 4.66
 4 9 -53 12.36 4.1
 9 -4 -53 6.21 4.06
 4 -9 -53 12.98 4.36
 9 -6 -53 11.16 4.36
 6 9 -53 10.6 3.96
 9 6 -53 12.88 4.3
 6 -9 -53 4.05 4.16
 9 -8 -53 -2.79 4.2
 8 9 -53 9.92 4.08
 8 -9 -53 -2.02 4.13
 9 8 -53 -0.48 4.18
 -1 -10 -53 4.99 4.1
 10 -1 -53 4.73 4.22
 1 10 -53 13.01 3.99
 10 1 -53 3.61 3.64
 1 -10 -53 -0.29 4.62
 -3 -10 -53 -1.3 4.07
 10 -3 -53 3.39 3.8
 -10 -3 -53 -3.36 3.44
 10 3 -53 1.82 3.58
 3 -10 -53 3.58 4.32
 5 10 -53 23.5 4.26
 10 -5 -53 13.15 4.28
 10 5 -53 15.27 4.08
 -10 -5 -53 13.9 3.59
 5 -10 -53 6.57 4.33
 10 -7 -53 7.19 4.39
 7 10 -53 7.63 4.12
 10 7 -53 9.58 4.33
 -10 -7 -53 13.31 3.3
 7 -10 -53 3.37 4.26
 -11 0 -53 84.76 6.14
 11 0 -53 96.65 6.67
 0 -11 -53 100.52 7.23
 2 11 -53 91.6 7.39
 11 -2 -53 116.43 7.09
 -11 2 -53 108.33 5.81
 -2 -11 -53 105.34 7.53
 11 2 -53 106.77 6.91
 -11 -2 -53 96.95 6.74
 2 -11 -53 102.83 7.51
 4 11 -53 89.11 6.79
 11 4 -53 84.36 6.61
 -11 -4 -53 85.36 6.31
 6 11 -53 30.07 4.38
 -11 -6 -53 25.27 3.7
 6 -11 -53 25.26 4.48
 11 6 -53 35.95 4.17
 -12 1 -53 -1.78 3.58
 12 -1 -53 -4.07 4.12
 -1 -12 -53 -0.91 4.04
 -12 -1 -53 -0.09 3.41
 1 -12 -53 -6.97 4.51
 12 1 -53 -1.6 3.56
 3 12 -53 5.15 4.33
 -12 3 -53 -3.96 3.72
 -3 -12 -53 1.1 4.28
 12 -3 -53 5.9 3.84
 12 3 -53 3.61 3.97
 -12 -3 -53 7.71 3.7
 3 -12 -53 -4.32 4.39
 12 -5 -53 13.12 4.01
 5 12 -53 17.16 4.46
 5 -12 -53 5.71 4.29
 -12 -5 -53 8.77 3.58
 12 5 -53 13.97 4.28
 -13 0 -53 4.74 3.53
 13 0 -53 1.17 3.74
 0 -13 -53 2.49 4.19
 0 0 -54 7.76 3.77
 1 -1 -54 5.99 3.93
 1 1 -54 3.06 3.67
 -1 -1 -54 12.58 3.73
 0 2 -54 -0.42 3.34
 0 -2 -54 -6.74 3.91
 2 0 -54 1.92 3.89
 2 2 -54 -2.01 3.52
 1 3 -54 -2.22 3.42
 3 -1 -54 2.45 3.84
 -1 -3 -54 1.74 3.77
 1 -3 -54 2.93 3.97
 3 1 -54 -2.35 3.64
 3 3 -54 0.47 3.53
 3 -3 -54 -4.41 3.69
 0 -4 -54 11.24 4.08
 0 4 -54 6.13 3.63
 4 0 -54 9.94 3.74
 -2 -4 -54 1.48 3.66
 2 4 -54 -1.62 3.5
 4 -2 -54 -0.12 3.64
 2 -4 -54 2.63 3.88
 4 2 -54 3.33 3.47
 4 -4 -54 4.1 3.97
 1 5 -54 0.23 3.66
 5 -1 -54 6.28 3.77
 -1 -5 -54 1.74 3.99
 5 1 -54 -2.17 3.48
 1 -5 -54 -2.24 3.95
 -3 -5 -54 3.15 3.53
 5 -3 -54 -1.66 4.11
 3 5 -54 5.44 3.6
 5 3 -54 3.21 3.48
 3 -5 -54 1.36 3.96
 5 5 -54 8.69 3.66
 5 -5 -54 9.52 4.04
 6 0 -54 -3.92 3.84
 0 -6 -54 3.35 3.95
 2 6 -54 6.49 3.95
 -2 -6 -54 -0.56 3.86
 6 -2 -54 2.93 4.11
 6 2 -54 -4.62 3.52
 2 -6 -54 -5.85 3.94
 4 6 -54 -0.61 3.81
 6 -4 -54 -3.7 3.76
 6 4 -54 2.43 3.69
 4 -6 -54 1.36 4.1
 6 6 -54 3.41 3.92
 6 -6 -54 4.01 4.38
 7 -1 -54 2.33 3.93
 -1 -7 -54 0.19 4
 7 1 -54 2.55 4.01
 1 -7 -54 -2.32 4.02
 3 7 -54 3.7 3.97
 7 -3 -54 2.18 3.78
 3 -7 -54 -0.12 4.18
 7 3 -54 5.44 3.83
 7 -5 -54 2.48 4.24
 5 7 -54 6.57 3.95
 7 5 -54 12.69 3.94
 5 -7 -54 8.35 4.57
 7 -7 -54 -1.63 4.34
 7 7 -54 9.94 4.05
 0 -8 -54 2.8 4.16
 8 0 -54 -1.57 3.61
 -2 -8 -54 0.39 3.93
 2 8 -54 5.35 4.19
 8 -2 -54 -0.83 3.92
 8 2 -54 3.18 3.78
 2 -8 -54 -2.6 4.22
 8 -4 -54 -0.24 3.93
 4 8 -54 -0.71 4.06
 8 4 -54 -3.61 4.06
 4 -8 -54 7.89 4.55
 6 8 -54 4.68 3.98
 8 6 -54 5.79 4.26
 6 -8 -54 4.53 4.31
 8 -8 -54 -6.28 4.25
 8 8 -54 -5.57 4.13
 1 9 -54 3.79 3.83
 9 -1 -54 1.55 4.21
 -1 -9 -54 1.81 4.37
 1 -9 -54 -5.4 4.21
 9 1 -54 -1.92 3.57
 9 -3 -54 -1.92 3.69
 3 9 -54 2.93 4.27
 -3 -9 -54 -4.34 3.8
 3 -9 -54 -0.13 4.67
 9 3 -54 4.21 3.64
 5 9 -54 10.87 4.1
 9 -5 -54 10.93 4.32
 9 5 -54 2.96 4
 5 -9 -54 15.51 4.44
 7 9 -54 9.32 4.1
 9 -7 -54 12.81 4.41
 7 -9 -54 15.07 4.38
 9 7 -54 16.36 4.39
 10 0 -54 5.74 3.91
 0 -10 -54 -2.73 4.12
 10 -2 -54 7.35 3.83
 -2 -10 -54 7.95 4.34
 2 10 -54 11.71 4.08
 2 -10 -54 0.95 4.57
 10 2 -54 3.85 3.86
 10 -4 -54 1.92 3.95
 -4 -10 -54 -4.94 3.78
 4 -10 -54 -1.29 4.54
 10 4 -54 3.13 3.72
 -10 -4 -54 -3.53 3.39
 6 10 -54 6.5 4.14
 10 -6 -54 0.4 4.4
 6 -10 -54 2.59 4.38
 10 6 -54 6.56 3.97
 11 -1 -54 2.15 4.07
 -1 -11 -54 1.32 4.15
 1 11 -54 7.75 4.02
 1 -11 -54 -2.27 4.24
 11 1 -54 -0.86 3.54
 -3 -11 -54 -4.39 3.97
 11 -3 -54 4.1 3.72
 3 11 -54 6.23 4.16
 3 -11 -54 -1.23 4.61
 11 3 -54 4.06 4.04
 1 0 -55 2.64 3.52
 0 1 -55 2.99 3.43
 0 -1 -55 3.79 3.53
 2 -1 -55 -2.5 3.65
 -1 -2 -55 3.53 3.46
 1 2 -55 5.02 3.45
 1 -2 -55 4.47 3.58
 -2 -1 -55 9.16 3.2
 0 -3 -55 -1.41 3.58
 3 0 -55 0.28 3.68
 0 3 -55 5.83 3.64
 -2 -3 -55 5.89 3.28
 2 3 -55 -3.92 3.51
 3 -2 -55 1.47 3.9
 2 -3 -55 -2.69 3.78
 3 2 -55 -1.76 3.47
 -1 -4 -55 -1.06 3.59
 4 -1 -55 7.24 4.05
 1 4 -55 3.36 3.85
 1 -4 -55 6.37 3.86
 4 1 -55 0.85 3.69
 4 -3 -55 0.33 3.97
 3 4 -55 5.23 3.75
 3 -4 -55 3.53 4.04
 4 3 -55 1.79 3.59
 0 5 -55 20.85 3.74
 5 0 -55 14.1 4.15
 0 -5 -55 16.03 4.06
 5 -2 -55 1.44 3.85
 2 5 -55 -1.83 3.84
 -2 -5 -55 3.17 3.48
 5 2 -55 7.03 3.79
 2 -5 -55 3.36 4.14
 5 -4 -55 6.4 3.86
 4 5 -55 4.02 3.86
 5 4 -55 5.74 3.9
 4 -5 -55 3.17 3.92
 -1 -6 -55 1.09 3.96
 1 6 -55 0.89 3.96
 6 -1 -55 -1.05 3.71
 6 1 -55 3.07 3.81
 1 -6 -55 -3.35 4.1
 3 6 -55 6.13 4.12
 -3 -6 -55 3.46 3.39
 6 -3 -55 1.34 3.87
 3 -6 -55 5.99 3.91
 6 3 -55 -2.47 3.93
 5 6 -55 -0.26 4.09
 6 -5 -55 -5.16 3.97
 5 -6 -55 -1.45 4.13
 6 5 -55 4.28 3.98
 0 -7 -55 16.74 4.29
 2 7 -55 10.99 4.09
 7 -2 -55 10.82 4.15
 -2 -7 -55 1.44 4.11
 2 -7 -55 3.51 4.04
 7 2 -55 -0.09 3.62
 7 -4 -55 9.39 3.89
 7 4 -55 5.03 4.02
 4 -7 -55 4.58 4.22
 7 -6 -55 0.78 4.37
 6 7 -55 -0.66 4.16
 6 -7 -55 10.31 4.51
 7 6 -55 4.9 4.32
 8 -1 -55 7.52 4.08
 1 8 -55 8.71 3.79
 -1 -8 -55 0.01 4.05
 1 -8 -55 4.3 4.16
 3 8 -55 0.55 4.12
 -3 -8 -55 -0.07 3.77
 8 -3 -55 6.06 3.74
 3 -8 -55 -5.16 4.27
 8 3 -55 6.81 3.58
 8 -5 -55 2.73 4.14
 5 -8 -55 -3.45 4.59
 8 5 -55 -0.85 3.82
 9 0 -55 15.8 4.02
 0 -9 -55 16.78 4.49
 -2 -9 -55 8.91 3.97
 9 -2 -55 10.67 3.9
 2 9 -55 4.64 3.89
 9 2 -55 6.75 3.83
 2 -9 -55 11.2 4.25
 4 9 -55 2.05 4.27
 9 -4 -55 5.25 4.04
 9 4 -55 5.58 3.67
 4 -9 -55 8.94 4.58
 -1 -10 -55 6.89 4.43
 10 -1 -55 5.68 4
 1 10 -55 16.34 4.05
 10 1 -55 9.19 3.67
 0 0 -56 240.82 10.63
 1 1 -56 1.34 3.71
 1 -1 -56 -3.54 3.83
 0 2 -56 144.81 7.52
 2 0 -56 144.24 7.72
 0 -2 -56 136.7 7.7
 -2 -2 -56 81.51 5.94
 2 -2 -56 79.39 5.25
 2 2 -56 79.81 5.19
 3 -1 -56 7.67 3.84
 -1 -3 -56 -1.97 3.71
 1 3 -56 7.63 3.59
 1 -3 -56 -1.34 3.82
 3 1 -56 2.93 3.75
 3 -3 -56 -5.04 3.65
 3 3 -56 1.85 3.77
 4 0 -56 207.87 9.74
 0 -4 -56 199.76 9.75
 0 4 -56 205.13 9.66
 2 4 -56 94.11 6.59
 4 -2 -56 100.48 7.07
 4 2 -56 91.42 6.45
 2 -4 -56 90.97 7.02
 4 4 -56 130.77 7.52
 4 -4 -56 130.99 7.62
 1 5 -56 1.86 3.61
 5 -1 -56 -2.32 3.71
 1 -5 -56 1.77 3.78
 -3 -5 -56 9.24 6.48
 3 5 -56 4.57 3.84
 5 -3 -56 -3.01 4.17
 5 3 -56 -0.92 3.67
 3 -5 -56 6.88 4.26
 5 -5 -56 0.54 3.76
 5 5 -56 4.43 3.87
 0 -6 -56 22.77 3.99
 6 0 -56 21.48 3.84
 2 6 -56 6.09 3.91
 6 -2 -56 10.43 4.12
 -2 -6 -56 3.94 3.59
 2 -6 -56 5.17 4.32
 6 2 -56 4.69 3.47
 6 -4 -56 14.74 3.81
 4 6 -56 19.6 4.21
 6 4 -56 15.88 3.88
 4 -6 -56 13.48 3.96
 -1 -7 -56 0.75 3.95
 1 7 -56 8.9 3.72
 7 -1 -56 2.79 4.01
 1 -7 -56 8.49 4.27
 7 -3 -56 0 3.69
 3 7 -56 4.67 3.92
 -3 -7 -56 4.93 3.38
 3 -7 -56 -0.62 3.94
 7 3 -56 3.9 3.53
 8 0 -56 32.7 4.16
 0 -8 -56 29.94 4.56
 2 8 -56 11.07 3.81
 2 -8 -56 14.17 4.14
 8 2 -56 10.52 3.9
 0 1 -57 -1.45 3.3
 0 -1 -57 3.17 3.55
 1 0 -57 -5.11 3.47
 1 2 -57 3.76 3.38
 2 -1 -57 2.35 3.64
 1 -2 -57 3.11 3.6
 2 1 -57 -4.01 3.37
 0 3 -57 7.25 3.4
 3 0 -57 3.29 3.53
 0 -3 -57 2.9 3.7
 3 -2 -57 2.4 3.96
 -2 -3 -57 6.17 3.38
 2 3 -57 -3.75 3.37
 2 -3 -57 0.21 3.94
 3 2 -57 -0.87 3.38
 4 -1 -57 0.95 3.96
 -1 -4 -57 6.64 3.88
 1 4 -57 8.73 3.5
 1 -4 -57 4.63 4.04
 4 1 -57 7.92 3.49
 3 4 -57 -2.54 3.53
 4 -3 -57 2.57 3.87
 4 3 -57 2.99 3.41
 3 -4 -57 4.46 3.93
 0 -5 -57 3.26 4.05
 5 0 -57 -3.53 3.86
 5 -2 -57 7.53 3.93
 -2 -5 -57 4.48 3.76
 2 5 -57 8.05 3.61
 2 -5 -57 3.86 3.88

_iucr_refine_instructions_details
;
TITL ROC_0m_a.res in I4(1)/amd
    run06i41amd.res
    created by SHELXL-2018/1 at 16:58:05 on 31-Jul-2019
REM Old TITL ROC_0m in I4(1)/amd
REM SHELXT solution in I4(1)/amd
REM R1 0.426, Rweak 0.003, Alpha 0.097, Orientation as input
REM Formula found by SHELXT: C94 Co8 Fe5 N37 O32
CELL 0.7288 29.1212 29.1212 52.1907 90 90 90
ZERR 16 0.0022 0.0022 0.0037 0 0 0
LATT 2
SYMM 0.5-X,-Y,0.5+Z
SYMM 0.25-Y,0.75+X,0.25+Z
SYMM 0.25+Y,0.25-X,0.75+Z
SYMM 0.5-X,+Y,0.5-Z
SYMM +X,-Y,-Z
SYMM 0.25+Y,0.75+X,0.25-Z
SYMM 0.25-Y,0.25-X,0.75-Z
SFAC C H Co Fe N O Cl
DISP C 0.0037 0.0017 12.0457
DISP Cl 0.1545 0.1684 722.9676
DISP Co 0.3576 1.0111 4266.7736
DISP Fe 0.3621 0.8896 3712.4999
DISP H -0 0 0.6249
DISP N 0.007 0.0034 20.6663
DISP O 0.0123 0.0065 34.424
UNIT 768 256 24 48 192 272 16
ISOR N00F

L.S. 30
PLAN  20
TEMP -173.15
BOND $H
LIST 4
ABIN
fmap 2
acta
REM <olex2.extras>
REM <HklSrc "%.\\run06I41amd.hkl">
REM </olex2.extras>

WGHT    0.127900
FVAR       0.03853
FE01  4    0.722543    0.527457    0.375000    10.50000    0.05442    0.05442 =
         0.02547    0.00345    0.00345    0.00186
FE02  4    0.779877    0.474013    0.570263    11.00000    0.05683    0.09648 =
         0.02896   -0.00984   -0.00729    0.00500
CO03  3    0.739838    0.250000    0.447148    10.50000    0.35033    0.03666 =
         0.02509    0.00000   -0.03256    0.00000
CO04  3    0.750000    0.750000    0.250000    10.25000    0.48925    0.02778 =
         0.02337    0.00000    0.04441    0.00000
CL05  7    0.652650    0.250000    0.453831    10.25000    0.26909    0.09175 =
         0.14900    0.00000   -0.05607    0.00000
CL06  7    0.839553    0.750000    0.256887    10.25000    0.29543    0.13117 =
         0.12165    0.00000    0.05055    0.00000
O007  6    0.731576    0.533411    0.335950    11.00000    0.06666    0.05086 =
         0.03577    0.00241    0.00713   -0.00312
O008  6    0.724966    0.464742    0.359767    11.00000    0.09173    0.03388 =
         0.05180    0.00704   -0.00889   -0.01240
O009  6    0.770559    0.467417    0.533283    11.00000    0.09463    0.06781 =
         0.02484   -0.00348   -0.00585    0.01276
O00A  6    0.788125    0.543568    0.563110    11.00000    0.06309    0.09417 =
         0.07674   -0.02237   -0.02413   -0.02387
AFIX   7
H00A  2    0.817046    0.551068    0.565028    11.00000   -1.50000
H00B  2    0.773847    0.559468    0.574880    11.00000   -1.50000
AFIX   0
O00B  6    0.724602    0.595695    0.369856    11.00000    0.18455    0.05545 =
         0.03097    0.00686    0.01138    0.00450
O00C  6    0.720054    0.402186    0.325594    11.00000    0.23585    0.07275 =
         0.02579    0.01345   -0.02051   -0.01375
O00D  6    0.770987    0.403433    0.568159    11.00000    0.17436    0.07057 =
         0.03341   -0.01680   -0.01905    0.01471
O00E  6    0.819472    0.250000    0.441973    10.50000    0.36145    0.21311 =
         0.12997    0.00000   -0.04692    0.00000
N00F  5    0.754575    0.250000    0.510750    10.50000    0.32531    0.07479 =
         0.00867    0.00000   -0.01735    0.00000
N00G  5    0.750000    0.634913    0.250000    10.50000    0.27482    0.06683 =
         0.02140    0.00000    0.02778    0.00000
N00I  5    0.739574    0.366003    0.446650    11.00000    0.20084    0.04135 =
         0.02238   -0.00006   -0.02259   -0.01378
N00L  5    0.734037    0.750000    0.314066    10.50000    0.44305    0.03817 =
         0.02504    0.00000    0.02428    0.00000
C00M  1    0.751858    0.287583    0.497862    11.00000    0.23611    0.05723 =
         0.02897   -0.01390   -0.03156   -0.02523
N00N  5    0.745600    0.297607    0.472311    11.00000    0.25587    0.05036 =
         0.02632   -0.00389   -0.03323    0.02013
N00O  5    0.736474    0.296448    0.421244    11.00000    0.37819    0.02140 =
         0.03033   -0.00007   -0.02833   -0.01335
N00P  5    0.729576    0.250000    0.383946    10.50000    0.44183    0.04052 =
         0.03646    0.00000   -0.06452    0.00000
N00Q  5    0.743104    0.704019    0.275437    11.00000    0.51685    0.03048 =
         0.01934    0.00106    0.03051    0.01960
C00Z  1    0.744856    0.656746    0.271576    11.00000    0.41105    0.02500 =
         0.01987   -0.00669    0.04328    0.00531
C010  1    0.753280    0.368028    0.492873    11.00000    0.18853    0.08959 =
         0.02682   -0.01056   -0.02727    0.00705
C00K  1    0.755120    0.413724    0.499118    11.00000    0.14107    0.06595 =
         0.02466   -0.01380   -0.00848    0.00210
AFIX  43
H00K  2    0.752270    0.436617    0.486248    11.00000   -1.20000
AFIX   0
C00X  1    0.761298    0.426036    0.524899    11.00000    0.12150    0.05655 =
         0.05250   -0.01341   -0.00043   -0.01456
C013  1    0.765094    0.388924    0.544304    11.00000    0.15354    0.06791 =
         0.02872    0.00223   -0.00953    0.02604
C00T  1    0.758719    0.343272    0.537533    11.00000    0.18645    0.08347 =
         0.04179   -0.01626   -0.00626    0.02844
AFIX  43
H00T  2    0.756849    0.319656    0.550048    11.00000   -1.20000
AFIX   0
C011  1    0.755274    0.334066    0.511934    11.00000    0.31057    0.03997 =
         0.02977   -0.00330    0.00152   -0.00099
C012  1    0.747632    0.343590    0.468388    11.00000    0.15913    0.04927 =
         0.07577   -0.01976   -0.03921    0.00067
C016  1    0.738948    0.587244    0.301270    11.00000    0.16388    0.07542 =
         0.03883   -0.00828    0.02632   -0.00981
AFIX  43
H016  2    0.742665    0.564655    0.288302    11.00000   -1.20000
AFIX   0
C00S  1    0.740504    0.634171    0.296109    11.00000    0.30110    0.02332 =
         0.02199    0.00404    0.01489   -0.00740
C00V  1    0.735615    0.665726    0.314680    11.00000    0.41299    0.00789 =
         0.02705   -0.00805    0.05970   -0.00681
C01A  1    0.731603    0.657656    0.340475    11.00000    0.21324    0.03515 =
         0.04812   -0.00531    0.03125   -0.00182
AFIX  43
H01A  2    0.729663    0.681295    0.352972    11.00000   -1.20000
AFIX   0
C00U  1    0.730665    0.610026    0.346463    11.00000    0.19599    0.06498 =
         0.02531    0.02185    0.01643   -0.00888
C00R  1    0.731531    0.575948    0.326873    11.00000    0.07745    0.04911 =
         0.02948    0.01802    0.01415    0.00424
C017  1    0.740329    0.711459    0.301820    11.00000    0.40452    0.04376 =
         0.04436   -0.00030    0.04511    0.05053
C018  1    0.735041    0.342848    0.425579    11.00000    0.37480    0.04913 =
         0.02739    0.01667   -0.01868    0.03308
C01B  1    0.728930    0.288368    0.396021    11.00000    0.43518    0.01352 =
         0.03900    0.01283   -0.04605    0.00393
C01C  1    0.724621    0.341919    0.355875    11.00000    0.38827    0.04275 =
         0.03431   -0.00243   -0.03984   -0.00289
AFIX  43
H01C  2    0.723165    0.318521    0.343217    11.00000   -1.20000
AFIX   0
C00W  1    0.723808    0.387303    0.349322    11.00000    0.06865
C00J  1    0.723375    0.422946    0.369176    11.00000    0.13610    0.05317 =
         0.02918    0.01384   -0.01923   -0.02032
C00Y  1    0.725684    0.412683    0.393731    11.00000    0.22505    0.02816 =
         0.04390    0.01449   -0.01860    0.00121
AFIX  43
H00Y  2    0.726877    0.436262    0.406292    11.00000   -1.20000
AFIX   0
C014  1    0.726334    0.367218    0.400842    11.00000    0.29603    0.08674 =
         0.04200    0.00446   -0.01041   -0.02962
C019  1    0.727683    0.331199    0.381953    11.00000    0.36009    0.04478 =
         0.07262   -0.01559   -0.03998   -0.03654

O1    6    0.750416    0.250000    0.600172    10.50000    0.83235    0.06510 =
         0.14565    0.00000    0.03393    0.00000
O2    6    0.838454    0.500000    0.500000    10.50000    0.16204    0.28085 =
         0.13586    0.03941    0.00000    0.00000
HKLF 4




REM  ROC_0m_a.res in I4(1)/amd
REM R1 =  0.0899 for    3266 Fo > 4sig(Fo)  and  0.1591 for all    7948 data
REM    388 parameters refined using      6 restraints

END  
     
WGHT      0.1280      0.0000 

REM Highest difference peak  1.250,  deepest hole -0.609,  1-sigma level  0.066
Q1    1   0.7227  0.4775  0.3750  11.00000  0.05    1.25
Q2    1   0.7245  0.5216  0.3207  11.00000  0.05    0.99
Q3    1   0.7801  0.5189  0.5716  11.00000  0.05    0.82
Q4    1   0.7213  0.5731  0.3740  11.00000  0.05    0.43
Q5    1   0.7281  0.7500  0.2521  10.50000  0.05    0.42
Q6    1   0.7509  0.7500  0.3083  10.50000  0.05    0.42
Q7    1   0.7434  0.2500  0.5528  10.50000  0.05    0.39
Q8    1   0.7630  0.4917  0.5889  11.00000  0.05    0.36
Q9    1   0.6937  0.3860  0.3503  11.00000  0.05    0.34
Q10   1   0.7800  0.2819  0.4643  11.00000  0.05    0.33
Q11   1   0.7607  0.4505  0.4685  11.00000  0.05    0.33
Q12   1   0.7523  0.3269  0.3396  11.00000  0.05    0.32
Q13   1   0.7709  0.2500  0.6240  10.50000  0.05    0.32
Q14   1   0.7804  0.4269  0.5718  11.00000  0.05    0.32
Q15   1   0.7500  0.5873  0.2500  10.50000  0.05    0.31
Q16   1   0.7664  0.4401  0.4646  11.00000  0.05    0.31
Q17   1   0.7809  0.2500  0.4492  10.50000  0.05    0.29
Q18   1   0.7258  0.4627  0.5321  11.00000  0.05    0.29
Q19   1   0.7703  0.5153  0.5345  11.00000  0.05    0.28
Q20   1   1.0000  0.5000  0.5000  10.25000  0.05    0.28

  REM The information below was added by Olex2.
  REM
  REM R1 = 0.0899 for 3266 Fo > 4sig(Fo) and 0.1591 for all 28963 data
  REM n/a parameters refined using n/a restraints
  REM Highest difference peak 1.25, deepest hole -0.61
  REM Mean Shift 0, Max Shift 0.001.

  REM +++ Tabular Listing of Refinement Information +++
  REM R1_all = 0.1591
  REM R1_gt = 0.0899
  REM wR_ref = 0.2543
  REM GOOF = 0.903
  REM Shift_max = 0.001
  REM Shift_mean = 0
  REM Reflections_all = 28963
  REM Reflections_gt = 3266
  REM Parameters = n/a
  REM Hole = -0.61
  REM Peak = 1.25
  REM Flack = n/a

  
;
_olex2_submission_special_instructions  'No special instructions were received'
