# Electronic Supplementary Material (ESI) for Journal of Materials Chemistry A.
# This journal is Â© The Royal Society of Chemistry 2020

####################################################################### 
# 
# This file contains crystal structure data downloaded from the 
# Cambridge Structural Database (CSD) hosted by the Cambridge 
# Crystallographic Data Centre (CCDC).
# 
# Full information about CCDC data access policies and citation 
# guidelines are available at http://www.ccdc.cam.ac.uk/access/V1 
# 
# Audit and citation data items may have been added by the CCDC. 
# Please retain this information to preserve the provenance of 
# this file and to allow appropriate attribution of the data. 
# 
#######################################################################

data_18101511_sq
_database_code_depnum_ccdc_archive 'CCDC 1892975'
loop_
_audit_author_name
_audit_author_address
Liu
;Sun Yat-sen University
China
;
_audit_update_record             
;
2019-01-23 deposited with the CCDC.	2020-04-14 downloaded from the CCDC.
;
_audit_creation_date             2019-01-23
_audit_creation_method           
;
Olex2 1.2
(compiled 2018.05.29 svn.r3508 for OlexSys, GUI svn.r5506)
;
_shelx_SHELXL_version_number     2018/3
_chemical_name_common            ?
_chemical_name_systematic        ?
_chemical_formula_moiety         '0.5(C96 H48 Fe4 N8 Ni2 O20)'
_chemical_formula_sum            'C48 H24 Fe2 N4 Ni O10'
_chemical_formula_weight         987.12
_chemical_melting_point          ?
_chemical_oxdiff_usercomment     20181004-3
loop_
_atom_type_symbol
_atom_type_description
_atom_type_scat_dispersion_real
_atom_type_scat_dispersion_imag
_atom_type_scat_source
C C 0.0033 0.0016 'International Tables Vol C Tables 4.2.6.8 and 6.1.1.4'
H H 0.0000 0.0000 'International Tables Vol C Tables 4.2.6.8 and 6.1.1.4'
Fe Fe 0.3463 0.8444 'International Tables Vol C Tables 4.2.6.8 and 6.1.1.4'
N N 0.0061 0.0033 'International Tables Vol C Tables 4.2.6.8 and 6.1.1.4'
Ni Ni 0.3393 1.1124 'International Tables Vol C Tables 4.2.6.8 and 6.1.1.4'
O O 0.0106 0.0060 'International Tables Vol C Tables 4.2.6.8 and 6.1.1.4'

_shelx_space_group_comment       
;
The symmetry employed for this shelxl refinement is uniquely defined
by the following loop, which should always be used as a source of
symmetry information in preference to the above space-group names.
They are only intended as comments.
;
_space_group_crystal_system      orthorhombic
_space_group_IT_number           65
_space_group_name_H-M_alt        'C m m m'
_space_group_name_Hall           '-C 2 2'
loop_
_space_group_symop_operation_xyz
'x, y, z'
'-x, -y, z'
'x, -y, -z'
'-x, y, -z'
'x+1/2, y+1/2, z'
'-x+1/2, -y+1/2, z'
'x+1/2, -y+1/2, -z'
'-x+1/2, y+1/2, -z'
'-x, -y, -z'
'x, y, -z'
'-x, y, z'
'x, -y, z'
'-x+1/2, -y+1/2, -z'
'x+1/2, y+1/2, -z'
'-x+1/2, y+1/2, z'
'x+1/2, -y+1/2, z'

_cell_length_a                   6.8484(3)
_cell_length_b                   32.9205(14)
_cell_length_c                   16.5679(8)
_cell_angle_alpha                90
_cell_angle_beta                 90
_cell_angle_gamma                90
_cell_volume                     3735.3(3)
_cell_formula_units_Z            2
_cell_measurement_reflns_used    4880
_cell_measurement_temperature    200.01(10)
_cell_measurement_theta_max      29.1940
_cell_measurement_theta_min      3.8660
_shelx_estimated_absorpt_T_max   0.967
_shelx_estimated_absorpt_T_min   0.936
_exptl_absorpt_coefficient_mu    0.670
_exptl_absorpt_correction_T_max  1.00000
_exptl_absorpt_correction_T_min  0.39149
_exptl_absorpt_correction_type   multi-scan
_exptl_absorpt_process_details   
;
CrysAlisPro 1.171.39.46 (Rigaku Oxford Diffraction, 2018)
Empirical absorption correction using spherical harmonics,
 implemented in SCALE3 ABSPACK scaling algorithm.
;
_exptl_absorpt_special_details   ?
_exptl_crystal_colour            'metallic dark red'
_exptl_crystal_colour_lustre     metallic
_exptl_crystal_colour_modifier   dark
_exptl_crystal_colour_primary    red
_exptl_crystal_density_diffrn    0.878
_exptl_crystal_density_meas      ?
_exptl_crystal_density_method    ?
_exptl_crystal_description       block
_exptl_crystal_F_000             1000
_exptl_crystal_size_max          0.1
_exptl_crystal_size_mid          0.1
_exptl_crystal_size_min          0.05
_exptl_transmission_factor_max   ?
_exptl_transmission_factor_min   ?
_diffrn_reflns_av_R_equivalents  0.0559
_diffrn_reflns_av_unetI/netI     0.0520
_diffrn_reflns_Laue_measured_fraction_full 0.994
_diffrn_reflns_Laue_measured_fraction_max 0.995
_diffrn_reflns_limit_h_max       8
_diffrn_reflns_limit_h_min       -8
_diffrn_reflns_limit_k_max       41
_diffrn_reflns_limit_k_min       -42
_diffrn_reflns_limit_l_max       19
_diffrn_reflns_limit_l_min       -21
_diffrn_reflns_number            10245
_diffrn_reflns_point_group_measured_fraction_full 0.994
_diffrn_reflns_point_group_measured_fraction_max 0.995
_diffrn_reflns_theta_full        25.242
_diffrn_reflns_theta_max         27.499
_diffrn_reflns_theta_min         3.490
_diffrn_ambient_environment      N~2~
_diffrn_ambient_temperature      200.01(10)
_diffrn_detector                 'CCD plate'
_diffrn_detector_area_resol_mean 5.2913
_diffrn_detector_type            AtlasS2
_diffrn_measured_fraction_theta_full 0.994
_diffrn_measured_fraction_theta_max 0.995
_diffrn_measurement_details      
;
List of Runs (angles in degrees, time in seconds):

  # Type    Start    End  Width  t~exp~   \w     \q     \k     \f   Frames
#--------------------------------------------------------------------------
  1  \w    -19.00  28.00   1.00   60.00    --  -12.17 -99.00 -60.00   47
  2  \w     58.00  85.00   1.00   60.00    --   13.26 178.00   0.00   27
  3  \w    -28.00  80.00   1.00   60.00    --   13.26  19.00-120.00  108
  4  \w     20.00  45.00   1.00   60.00    --   13.26 -77.00-180.00   25
;
_diffrn_measurement_device       'four-circle diffractometer'
_diffrn_measurement_device_type  'SuperNova, Dual, Cu at home/near, AtlasS2'
_diffrn_measurement_method       '\w scans'
_diffrn_orient_matrix_type       
'CrysAlisPro convention (1999,Acta A55,543-557)'
_diffrn_orient_matrix_UB_11      0.0176281000
_diffrn_orient_matrix_UB_12      -0.0178540000
_diffrn_orient_matrix_UB_13      -0.0228068000
_diffrn_orient_matrix_UB_21      -0.0277144000
_diffrn_orient_matrix_UB_22      -0.0120624000
_diffrn_orient_matrix_UB_23      0.0336111000
_diffrn_orient_matrix_UB_31      -0.0981967000
_diffrn_orient_matrix_UB_32      0.0002130000
_diffrn_orient_matrix_UB_33      -0.0135522000
_diffrn_radiation_monochromator  mirror
_diffrn_radiation_probe          x-ray
_diffrn_radiation_type           MoK\a
_diffrn_radiation_wavelength     0.71073
_diffrn_source                   'micro-focus sealed X-ray tube'
_diffrn_source_type              'SuperNova (Mo) X-ray Source'
_reflns_Friedel_coverage         0.000
_reflns_Friedel_fraction_full    .
_reflns_Friedel_fraction_max     .
_reflns_number_gt                1992
_reflns_number_total             2437
_reflns_odcompleteness_completeness 99.58
_reflns_odcompleteness_iscentric 1
_reflns_odcompleteness_theta     27.04
_reflns_special_details          
;
 Reflections were merged by SHELXL according to the crystal
 class for the calculation of statistics and refinement.
 
 Structure factors included contributions from the .fab file.
 
 _reflns_Friedel_fraction is defined as the number of unique
 Friedel pairs measured divided by the number that would be
 possible theoretically, ignoring centric projections and
 systematic absences.
;
_reflns_threshold_expression     'I > 2\s(I)'
_computing_cell_refinement       'CrysAlisPro 1.171.39.46 (Rigaku OD, 2018)'
_computing_data_collection       'CrysAlisPro 1.171.39.46 (Rigaku OD, 2018)'
_computing_data_reduction        'CrysAlisPro 1.171.39.46 (Rigaku OD, 2018)'
_computing_molecular_graphics    'Olex2 (Dolomanov et al., 2009)'
_computing_publication_material  'Olex2 (Dolomanov et al., 2009)'
_computing_structure_refinement  'ShelXL (Sheldrick, 2015)'
_computing_structure_solution    'ShelXS (Sheldrick, 2008)'
_refine_diff_density_max         0.870
_refine_diff_density_min         -0.450
_refine_diff_density_rms         0.074
_refine_ls_extinction_coef       .
_refine_ls_extinction_method     none
_refine_ls_goodness_of_fit_ref   1.080
_refine_ls_hydrogen_treatment    constr
_refine_ls_matrix_type           full
_refine_ls_number_parameters     95
_refine_ls_number_reflns         2437
_refine_ls_number_restraints     0
_refine_ls_R_factor_all          0.0565
_refine_ls_R_factor_gt           0.0450
_refine_ls_restrained_S_all      1.080
_refine_ls_shift/su_max          0.000
_refine_ls_shift/su_mean         0.000
_refine_ls_structure_factor_coef Fsqd
_refine_ls_weighting_details     
'w=1/[\s^2^(Fo^2^)+(0.0679P)^2^+2.3175P] where P=(Fo^2^+2Fc^2^)/3'
_refine_ls_weighting_scheme      calc
_refine_ls_wR_factor_gt          0.1279
_refine_ls_wR_factor_ref         0.1333
_refine_special_details          ?
_olex2_refinement_description    
;
1. Fixed Uiso
 At 1.2 times of:
  All C(H) groups
2.a Aromatic/amide H refined with riding coordinates:
 C1(H1), C5(H5), C7(H7), C8(H8)
;
_atom_sites_solution_hydrogens   geom
_atom_sites_solution_primary     direct
_atom_sites_solution_secondary   ?
loop_
_atom_site_label
_atom_site_type_symbol
_atom_site_fract_x
_atom_site_fract_y
_atom_site_fract_z
_atom_site_U_iso_or_equiv
_atom_site_adp_type
_atom_site_occupancy
_atom_site_site_symmetry_order
_atom_site_calc_flag
_atom_site_refinement_flags_posn
_atom_site_refinement_flags_adp
_atom_site_refinement_flags_occupancy
_atom_site_disorder_assembly
_atom_site_disorder_group
Ni1 Ni 0.500000 0.500000 1.000000 0.0191(2) Uani 1 8 d S T P . .
Fe1 Fe 0.750000 0.250000 0.500000 0.01517(19) Uani 1 4 d S T P . .
O1 O 0.6617(3) 0.28930(5) 0.58560(11) 0.0370(5) Uani 1 1 d . . . . .
O2 O 1.000000 0.27746(7) 0.500000 0.0095(5) Uani 1 4 d S T P . .
N1 N 0.500000 0.44087(11) 1.000000 0.0227(8) Uani 1 4 d S T P . .
N2 N 0.500000 0.500000 0.8822(2) 0.0237(8) Uani 1 4 d S T P . .
C1 C 0.500000 0.37329(11) 0.9596(2) 0.0446(10) Uani 1 2 d S T P . .
H1 H 0.500000 0.350604 0.926119 0.054 Uiso 1 2 calc RS T P . .
C2 C 0.500000 0.41507(10) 0.9344(2) 0.0300(8) Uani 1 2 d S T P . .
C3 C 0.500000 0.42668(10) 0.8544(2) 0.0264(7) Uani 1 2 d S T P . .
C4 C 0.500000 0.46711(10) 0.8308(2) 0.0275(7) Uani 1 2 d S T P . .
C5 C 0.500000 0.47952(11) 0.7485(2) 0.0400(10) Uani 1 2 d S T P . .
H5 H 0.500000 0.462657 0.703432 0.048 Uiso 1 2 calc RS T P . .
C6 C 0.500000 0.39422(10) 0.7910(2) 0.0295(8) Uani 1 2 d S T P . .
C7 C 0.6722(5) 0.37915(10) 0.7617(2) 0.0554(9) Uani 1 1 d . . . . .
H7 H 0.790236 0.388760 0.781881 0.067 Uiso 1 1 calc R . . . .
C8 C 0.6712(4) 0.34949(10) 0.7019(2) 0.0535(9) Uani 1 1 d . . . . .
H8 H 0.788997 0.339945 0.681403 0.064 Uiso 1 1 calc R . . . .
C9 C 0.500000 0.33422(10) 0.6730(2) 0.0256(7) Uani 1 2 d S T P . .
C10 C 0.500000 0.30153(10) 0.6103(2) 0.0241(7) Uani 1 2 d S T P . .

loop_
_atom_site_aniso_label
_atom_site_aniso_U_11
_atom_site_aniso_U_22
_atom_site_aniso_U_33
_atom_site_aniso_U_23
_atom_site_aniso_U_13
_atom_site_aniso_U_12
Ni1 0.0316(4) 0.0140(4) 0.0116(4) 0.000 0.000 0.000
Fe1 0.0195(3) 0.0134(3) 0.0126(3) 0.000 0.000 0.0014(2)
O1 0.0293(9) 0.0400(11) 0.0416(11) -0.0267(9) 0.0048(8) -0.0015(8)
O2 0.0093(11) 0.0045(12) 0.0148(14) 0.000 0.000 0.000
N1 0.039(2) 0.0139(18) 0.0157(18) 0.000 0.000 0.000
N2 0.039(2) 0.0166(18) 0.0158(19) 0.000 0.000 0.000
C1 0.087(3) 0.0151(16) 0.031(2) -0.0037(15) 0.000 0.000
C2 0.053(2) 0.0162(16) 0.0205(17) -0.0019(13) 0.000 0.000
C3 0.0423(19) 0.0189(15) 0.0182(16) -0.0068(13) 0.000 0.000
C4 0.0445(19) 0.0207(16) 0.0175(16) -0.0053(13) 0.000 0.000
C5 0.077(3) 0.0285(19) 0.0148(17) -0.0047(14) 0.000 0.000
C6 0.047(2) 0.0227(17) 0.0191(17) -0.0025(14) 0.000 0.000
C7 0.0411(15) 0.066(2) 0.059(2) -0.0472(17) -0.0014(15) -0.0094(15)
C8 0.0328(14) 0.065(2) 0.063(2) -0.0470(17) 0.0074(14) -0.0044(14)
C9 0.0331(17) 0.0241(16) 0.0196(16) -0.0096(14) 0.000 0.000
C10 0.0315(17) 0.0226(16) 0.0183(16) -0.0070(13) 0.000 0.000

_geom_special_details            
;
 All esds (except the esd in the dihedral angle between two l.s. planes)
 are estimated using the full covariance matrix.  The cell esds are taken
 into account individually in the estimation of esds in distances, angles
 and torsion angles; correlations between esds in cell parameters are only
 used when they are defined by crystal symmetry.  An approximate (isotropic)
 treatment of cell esds is used for estimating esds involving l.s. planes.
;
loop_
_geom_bond_atom_site_label_1
_geom_bond_atom_site_label_2
_geom_bond_distance
_geom_bond_site_symmetry_2
_geom_bond_publ_flag
Ni1 N1 1.946(3) 9_667 ?
Ni1 N1 1.947(3) . ?
Ni1 N2 1.951(4) 9_667 ?
Ni1 N2 1.951(4) . ?
Fe1 O1 2.0125(16) 10_556 ?
Fe1 O1 2.0125(16) . ?
Fe1 O1 2.0125(16) 6_655 ?
Fe1 O1 2.0125(16) 13_656 ?
Fe1 O2 1.9361(11) . ?
Fe1 O2 1.9361(11) 13_656 ?
O1 C10 1.248(2) . ?
N1 C2 1.379(4) 10_557 ?
N1 C2 1.379(4) . ?
N2 C4 1.378(4) 2_665 ?
N2 C4 1.378(4) . ?
C1 C1 1.340(8) 10_557 ?
C1 C2 1.437(5) . ?
C2 C3 1.379(5) . ?
C3 C4 1.388(4) . ?
C3 C6 1.499(4) . ?
C4 C5 1.423(5) . ?
C5 C5 1.348(7) 2_665 ?
C6 C7 1.368(3) 11_655 ?
C6 C7 1.368(3) . ?
C7 C8 1.391(4) . ?
C8 C9 1.363(3) . ?
C9 C10 1.496(4) . ?

loop_
_geom_angle_atom_site_label_1
_geom_angle_atom_site_label_2
_geom_angle_atom_site_label_3
_geom_angle
_geom_angle_site_symmetry_1
_geom_angle_site_symmetry_3
_geom_angle_publ_flag
N1 Ni1 N1 180.0 9_667 . ?
N1 Ni1 N2 90.0 . . ?
N1 Ni1 N2 90.0 9_667 . ?
N1 Ni1 N2 90.0 9_667 9_667 ?
N1 Ni1 N2 90.0 . 9_667 ?
N2 Ni1 N2 180.0 9_667 . ?
O1 Fe1 O1 89.62(12) 13_656 6_655 ?
O1 Fe1 O1 90.39(12) 6_655 . ?
O1 Fe1 O1 89.61(12) 10_556 . ?
O1 Fe1 O1 180.00(9) 10_556 6_655 ?
O1 Fe1 O1 180.00(9) 13_656 . ?
O1 Fe1 O1 90.38(12) 13_656 10_556 ?
O2 Fe1 O1 88.02(7) 13_656 6_655 ?
O2 Fe1 O1 91.98(7) . 13_656 ?
O2 Fe1 O1 88.02(7) . 10_556 ?
O2 Fe1 O1 91.98(7) . 6_655 ?
O2 Fe1 O1 91.98(7) 13_656 10_556 ?
O2 Fe1 O1 88.02(7) 13_656 13_656 ?
O2 Fe1 O1 91.98(7) 13_656 . ?
O2 Fe1 O1 88.02(7) . . ?
O2 Fe1 O2 180.0 13_656 . ?
C10 O1 Fe1 134.87(17) . . ?
Fe1 O2 Fe1 124.33(13) . 7_556 ?
C2 N1 Ni1 128.01(18) 10_557 . ?
C2 N1 Ni1 128.01(18) . . ?
C2 N1 C2 104.0(4) 10_557 . ?
C4 N2 Ni1 128.23(19) 2_665 . ?
C4 N2 Ni1 128.23(19) . . ?
C4 N2 C4 103.5(4) . 2_665 ?
C1 C1 C2 106.9(2) 10_557 . ?
N1 C2 C1 111.1(3) . . ?
C3 C2 N1 125.9(3) . . ?
C3 C2 C1 122.9(3) . . ?
C2 C3 C4 122.5(3) . . ?
C2 C3 C6 118.4(3) . . ?
C4 C3 C6 119.1(3) . . ?
N2 C4 C3 125.4(3) . . ?
N2 C4 C5 111.5(3) . . ?
C3 C4 C5 123.1(3) . . ?
C5 C5 C4 106.69(19) 2_665 . ?
C7 C6 C3 120.44(17) 11_655 . ?
C7 C6 C3 120.45(17) . . ?
C7 C6 C7 119.1(3) 11_655 . ?
C6 C7 C8 120.2(3) . . ?
C9 C8 C7 120.9(3) . . ?
C8 C9 C8 118.7(3) 11_655 . ?
C8 C9 C10 120.63(16) 11_655 . ?
C8 C9 C10 120.63(16) . . ?
O1 C10 O1 125.2(3) . 11_655 ?
O1 C10 C9 117.40(15) 11_655 . ?
O1 C10 C9 117.40(15) . . ?

_shelx_res_file                  
;
TITL 18101511 in Cmmm #65
    18101511_sq.res
    created by SHELXL-2018/3 at 14:17:44 on 23-Jan-2019
REM reset to Cmmm #65
CELL 0.71073 6.8484 32.9205 16.5679 90 90 90
ZERR 2 0.0003 0.0014 0.0008 0 0 0
LATT 7
SYMM -X,-Y,+Z
SYMM +X,-Y,-Z
SYMM -X,+Y,-Z
SFAC C H Fe N Ni O
UNIT 96 48 4 8 2 20

L.S. 5 0 30
PLAN  30
SIZE 0.1 0.1 0.05
BOND
ABIN
fmap 2
acta
OMIT -1 55
OMIT 0 6 0
OMIT 1 1 2
REM <olex2.extras>
REM <HklSrc "%.\\18101511_sq.hkl">
REM </olex2.extras>

WGHT    0.067900    2.317500
FVAR       0.28637
NI1   5    0.500000    0.500000    1.000000    10.12500    0.03157    0.01400 =
         0.01161    0.00000    0.00000    0.00000
FE1   3    0.750000    0.250000    0.500000    10.25000    0.01947    0.01345 =
         0.01261    0.00000    0.00000    0.00141
O1    6    0.661737    0.289296    0.585603    11.00000    0.02930    0.04004 =
         0.04155   -0.02674    0.00481   -0.00152
O2    6    1.000000    0.277460    0.500000    10.25000    0.00925    0.00447 =
         0.01479    0.00000    0.00000    0.00000
N1    4    0.500000    0.440872    1.000000    10.25000    0.03867    0.01387 =
         0.01566    0.00000    0.00000    0.00000
N2    4    0.500000    0.500000    0.882236    10.25000    0.03884    0.01656 =
         0.01585    0.00000    0.00000    0.00000
C1    1    0.500000    0.373293    0.959561    10.50000    0.08729    0.01512 =
         0.03145   -0.00371    0.00000    0.00000
AFIX  43
H1    2    0.500000    0.350604    0.926119    10.50000   -1.20000
AFIX   0
C2    1    0.500000    0.415070    0.934402    10.50000    0.05346    0.01617 =
         0.02047   -0.00190    0.00000    0.00000
C3    1    0.500000    0.426678    0.854410    10.50000    0.04227    0.01887 =
         0.01821   -0.00683    0.00000    0.00000
C4    1    0.500000    0.467110    0.830755    10.50000    0.04446    0.02068 =
         0.01747   -0.00529    0.00000    0.00000
C5    1    0.500000    0.479524    0.748463    10.50000    0.07681    0.02849 =
         0.01479   -0.00465    0.00000    0.00000
AFIX  43
H5    2    0.500000    0.462657    0.703432    10.50000   -1.20000
AFIX   0
C6    1    0.500000    0.394215    0.790960    10.50000    0.04659    0.02269 =
         0.01913   -0.00246    0.00000    0.00000
C7    1    0.672213    0.379149    0.761726    11.00000    0.04109    0.06636 =
         0.05884   -0.04723   -0.00138   -0.00943
AFIX  43
H7    2    0.790236    0.388760    0.781881    11.00000   -1.20000
AFIX   0
C8    1    0.671216    0.349488    0.701925    11.00000    0.03280    0.06490 =
         0.06293   -0.04701    0.00737   -0.00435
AFIX  43
H8    2    0.788997    0.339945    0.681403    11.00000   -1.20000
AFIX   0
C9    1    0.500000    0.334225    0.673007    10.50000    0.03309    0.02406 =
         0.01962   -0.00964    0.00000    0.00000
C10   1    0.500000    0.301527    0.610334    10.50000    0.03155    0.02255 =
         0.01828   -0.00702    0.00000    0.00000
HKLF 4




REM  18101511 in Cmmm #65
REM wR2 = 0.1333, GooF = S = 1.080, Restrained GooF = 1.080 for all data
REM R1 = 0.0450 for 1992 Fo > 4sig(Fo) and 0.0565 for all 2437 data
REM 95 parameters refined using 0 restraints

END

WGHT      0.0680      2.3024

REM Highest difference peak  0.870,  deepest hole -0.450,  1-sigma level  0.074
Q1    1   1.0000  0.2726  0.4692  10.50000  0.05    0.87
Q2    1   1.0000  0.2900  0.5000  10.25000  0.05    0.67
Q3    1   0.6301  0.5202  1.0000  10.50000  0.05    0.49
Q4    1   0.5000  0.5000  0.9364  10.25000  0.05    0.42
Q5    1   0.5000  0.3202  0.6430  10.50000  0.05    0.41
Q6    1   0.6290  0.5000  1.0305  10.50000  0.05    0.41
Q7    1   0.4236  0.5000  0.7385  10.50000  0.05    0.38
Q8    1   0.0000  0.5000  1.0000  10.12500  0.05    0.34
Q9    1   0.6492  0.2775  0.5987  11.00000  0.05    0.31
Q10   1   0.5000  0.4080  0.8216  10.50000  0.05    0.31
Q11   1   0.4701  0.4207  0.8892  11.00000  0.05    0.30
Q12   1   0.4426  0.4469  0.8408  11.00000  0.05    0.28
Q13   1   0.4091  0.3311  0.6983  11.00000  0.05    0.27
Q14   1   0.6663  0.2521  0.5393  11.00000  0.05    0.26
Q15   1   1.0000  0.2507  0.4234  10.50000  0.05    0.26
Q16   1   0.5857  0.3009  0.5632  11.00000  0.05    0.25
Q17   1   0.5000  0.3578  0.6032  10.50000  0.05    0.25
Q18   1   0.4273  0.3979  0.7645  11.00000  0.05    0.25
Q19   1   0.5000  0.4680  0.6504  10.50000  0.05    0.25
Q20   1   0.5000  0.2724  0.5355  10.50000  0.05    0.23
Q21   1   0.6187  0.3908  0.7378  11.00000  0.05    0.22
Q22   1   0.8014  0.3230  0.7116  11.00000  0.05    0.22
Q23   1   0.0000  0.4709  1.0000  10.25000  0.05    0.22
Q24   1   0.6537  0.2766  0.5000  10.50000  0.05    0.22
Q25   1   0.8454  0.3260  0.7014  11.00000  0.05    0.21
Q26   1   0.5000  0.3363  0.9071  10.50000  0.05    0.21
Q27   1   0.3547  0.4433  1.0000  10.50000  0.05    0.21
Q28   1   0.0000  0.4232  1.0000  10.25000  0.05    0.21
Q29   1   0.5980  0.3718  0.7913  11.00000  0.05    0.21
Q30   1   0.4155  0.3509  0.6636  11.00000  0.05    0.20
;
_shelx_res_checksum              93602
_shelx_fab_file                  
;
    0    0    3    -91.55      0.00
    0    0    4     22.66      0.00
    0    0    5    -15.33      0.00
    0    0    6      1.27      0.00
    0    0    7    -31.39      0.00
    0    0    8     -4.23      0.00
    0    0    9      7.66      0.00
    0    0   10      5.20      0.00
    0    0   11      5.07      0.00
    0    0   12     -0.74      0.00
    0    0   13     -0.42      0.00
    0    0   14      5.74      0.00
    0    0   15     -4.85      0.00
    0    0   16      3.16      0.00
    0    0   17     -6.08      0.00
    0    0   18      1.25      0.00
    0    0   19     -3.85      0.00
    0    0   20      2.37      0.00
    0    0   21     -2.67      0.00
    0    0   22      2.43      0.00
    0    0   23      1.63      0.00
    0    2    3     22.08      0.00
    0    2    4      2.39      0.00
    0    2    5    -17.13      0.00
    0    2    6     -4.32      0.00
    0    2    7      2.58      0.00
    0    2    8      0.43      0.00
    0    2    9      6.34      0.00
    0    2   10     -6.61      0.00
    0    2   11      5.55      0.00
    0    2   12      0.06      0.00
    0    2   13      4.75      0.00
    0    2   14      6.67      0.00
    0    2   15     -2.52      0.00
    0    2   16      0.83      0.00
    0    2   17     -4.11      0.00
    0    2   18      2.19      0.00
    0    2   19     -2.27      0.00
    0    2   20     -1.49      0.00
    0    2   21      2.64      0.00
    0    2   22      3.56      0.00
    0    2   23      0.89      0.00
    0    4    2    -94.69      0.00
    0    4    3    -15.10      0.00
    0    4    4     -7.87      0.00
    0    4    5     46.12      0.00
    0    4    6      0.91      0.00
    0    4    7      5.11      0.00
    0    4    8    -13.59      0.00
    0    4    9     11.71      0.00
    0    4   10     -3.65      0.00
    0    4   11      4.92      0.00
    0    4   12     -3.59      0.00
    0    4   13      2.60      0.00
    0    4   14      2.19      0.00
    0    4   15     -2.02      0.00
    0    4   16      1.13      0.00
    0    4   17     -0.18      0.00
    0    4   18      0.07      0.00
    0    4   19      0.01      0.00
    0    4   20     -2.03      0.00
    0    4   21      0.20      0.00
    0    4   22     -4.41      0.00
    0    4   23      1.63      0.00
    0    6    1     25.05      0.00
    0    6    2      5.79      0.00
    0    6    3     39.75      0.00
    0    6    4     -1.50      0.00
    0    6    5    -10.02      0.00
    0    6    6     -0.50      0.00
    0    6    7      3.11      0.00
    0    6    8      1.16      0.00
    0    6    9     -0.64      0.00
    0    6   10     -7.01      0.00
    0    6   11     -4.47      0.00
    0    6   12     -0.82      0.00
    0    6   13      1.05      0.00
    0    6   14      2.21      0.00
    0    6   15     -1.32      0.00
    0    6   16     -1.71      0.00
    0    6   17     -2.50      0.00
    0    6   18      1.55      0.00
    0    6   19      0.69      0.00
    0    6   20      0.37      0.00
    0    6   21     -0.42      0.00
    0    6   22     -0.62      0.00
    0    6   23      1.56      0.00
    0    8    0     36.76      0.00
    0    8    1     -6.65      0.00
    0    8    2    -21.81      0.00
    0    8    3    -35.59      0.00
    0    8    4     42.70      0.00
    0    8    5      3.11      0.00
    0    8    6     31.32      0.00
    0    8    7    -10.83      0.00
    0    8    8      2.69      0.00
    0    8    9     -2.75      0.00
    0    8   10      3.64      0.00
    0    8   11     -0.61      0.00
    0    8   12      1.50      0.00
    0    8   13      3.56      0.00
    0    8   14     -0.29      0.00
    0    8   15      0.40      0.00
    0    8   16      1.75      0.00
    0    8   17      3.55      0.00
    0    8   18      3.87      0.00
    0    8   19     -0.30      0.00
    0    8   20      2.34      0.00
    0    8   21     -0.21      0.00
    0    8   22     -1.75      0.00
    0    8   23      0.17      0.00
    0   10    0    -24.31      0.00
    0   10    1    -22.47      0.00
    0   10    2     23.59      0.00
    0   10    3     -5.33      0.00
    0   10    4     14.83      0.00
    0   10    5    -26.46      0.00
    0   10    6     11.41      0.00
    0   10    7      8.17      0.00
    0   10    8     15.74      0.00
    0   10    9      6.85      0.00
    0   10   10     -2.02      0.00
    0   10   11     -2.10      0.00
    0   10   12     -6.61      0.00
    0   10   13      3.18      0.00
    0   10   14     -3.61      0.00
    0   10   15      0.83      0.00
    0   10   16      0.06      0.00
    0   10   17      1.47      0.00
    0   10   18      4.11      0.00
    0   10   19      3.23      0.00
    0   10   20      2.81      0.00
    0   10   21     -1.26      0.00
    0   10   22     -2.67      0.00
    0   12    0      9.13      0.00
    0   12    1      3.68      0.00
    0   12    2    -14.41      0.00
    0   12    3    -10.16      0.00
    0   12    4      8.47      0.00
    0   12    5     14.59      0.00
    0   12    6      1.92      0.00
    0   12    7      7.35      0.00
    0   12    8     -7.75      0.00
    0   12    9     -0.47      0.00
    0   12   10     -1.12      0.00
    0   12   11      1.94      0.00
    0   12   12     -4.42      0.00
    0   12   13      0.85      0.00
    0   12   14     -6.72      0.00
    0   12   15     -2.75      0.00
    0   12   16      0.28      0.00
    0   12   17     -0.45      0.00
    0   12   18      3.16      0.00
    0   12   19     -2.36      0.00
    0   12   20      0.77      0.00
    0   12   21      1.04      0.00
    0   12   22     -1.76      0.00
    0   14    0     -3.71      0.00
    0   14    1     -0.13      0.00
    0   14    2      9.08      0.00
    0   14    3      7.84      0.00
    0   14    4     -8.92      0.00
    0   14    5     -4.39      0.00
    0   14    6     -9.31      0.00
    0   14    7     17.02      0.00
    0   14    8     10.17      0.00
    0   14    9      4.51      0.00
    0   14   10      0.97      0.00
    0   14   11     -6.67      0.00
    0   14   12     -3.29      0.00
    0   14   13     -0.89      0.00
    0   14   14      1.10      0.00
    0   14   15     -1.08      0.00
    0   14   16      1.18      0.00
    0   14   17     -0.36      0.00
    0   14   18      1.98      0.00
    0   14   19     -3.24      0.00
    0   14   20     -0.61      0.00
    0   14   21      0.71      0.00
    0   14   22     -1.88      0.00
    0   16    0      7.75      0.00
    0   16    1     -5.29      0.00
    0   16    2     -7.59      0.00
    0   16    3     -7.42      0.00
    0   16    4      2.61      0.00
    0   16    5      7.49      0.00
    0   16    6      1.43      0.00
    0   16    7      1.32      0.00
    0   16    8     -3.67      0.00
    0   16    9     -6.31      0.00
    0   16   10      6.41      0.00
    0   16   11     -0.36      0.00
    0   16   12      3.30      0.00
    0   16   13     -5.44      0.00
    0   16   14      0.11      0.00
    0   16   15      1.00      0.00
    0   16   16      2.63      0.00
    0   16   17      1.43      0.00
    0   16   18      1.22      0.00
    0   16   19      0.39      0.00
    0   16   20      0.31      0.00
    0   16   21      1.44      0.00
    0   18    0     -1.65      0.00
    0   18    1      0.68      0.00
    0   18    2     -1.09      0.00
    0   18    3      3.82      0.00
    0   18    4     -1.79      0.00
    0   18    5     -4.52      0.00
    0   18    6     -4.52      0.00
    0   18    7      6.34      0.00
    0   18    8      3.57      0.00
    0   18    9     -0.26      0.00
    0   18   10     -1.75      0.00
    0   18   11     -5.54      0.00
    0   18   12     -0.81      0.00
    0   18   13      0.31      0.00
    0   18   14      2.63      0.00
    0   18   15     -1.73      0.00
    0   18   16      0.23      0.00
    0   18   17      2.34      0.00
    0   18   18      3.66      0.00
    0   18   19      0.78      0.00
    0   18   20     -0.57      0.00
    0   18   21      1.34      0.00
    0   20    0     -1.22      0.00
    0   20    1     -3.99      0.00
    0   20    2     -8.87      0.00
    0   20    3     -0.09      0.00
    0   20    4      2.17      0.00
    0   20    5      4.80      0.00
    0   20    6      0.83      0.00
    0   20    7      0.54      0.00
    0   20    8    -10.46      0.00
    0   20    9     -2.77      0.00
    0   20   10     -3.45      0.00
    0   20   11      3.28      0.00
    0   20   12     -1.56      0.00
    0   20   13     -1.56      0.00
    0   20   14      1.26      0.00
    0   20   15      1.59      0.00
    0   20   16      1.21      0.00
    0   20   17     -4.86      0.00
    0   20   18     -1.06      0.00
    0   20   19      0.82      0.00
    0   20   20      3.49      0.00
    0   20   21      2.29      0.00
    0   22    0      7.96      0.00
    0   22    1     -2.80      0.00
    0   22    2      1.82      0.00
    0   22    3     -3.64      0.00
    0   22    4      0.50      0.00
    0   22    5     -7.95      0.00
    0   22    6     -1.32      0.00
    0   22    7     -0.65      0.00
    0   22    8     -1.63      0.00
    0   22    9      2.31      0.00
    0   22   10     -2.26      0.00
    0   22   11      3.01      0.00
    0   22   12     -0.77      0.00
    0   22   13      1.52      0.00
    0   22   14      0.68      0.00
    0   22   15     -1.95      0.00
    0   22   16     -0.41      0.00
    0   22   17     -1.16      0.00
    0   22   18      2.11      0.00
    0   22   19     -1.54      0.00
    0   22   20     -0.65      0.00
    0   24    0      3.49      0.00
    0   24    1     -2.08      0.00
    0   24    2     -1.51      0.00
    0   24    3     -1.17      0.00
    0   24    4      1.78      0.00
    0   24    5     -4.97      0.00
    0   24    6      1.66      0.00
    0   24    7     -5.97      0.00
    0   24    8     -3.23      0.00
    0   24    9     -1.02      0.00
    0   24   10      0.29      0.00
    0   24   11      3.88      0.00
    0   24   12      2.42      0.00
    0   24   13      2.85      0.00
    0   24   14      1.29      0.00
    0   24   15      1.32      0.00
    0   24   16      1.47      0.00
    0   24   17     -2.51      0.00
    0   24   18      0.85      0.00
    0   24   19     -0.05      0.00
    0   26    0     -1.16      0.00
    0   26    1      9.03      0.00
    0   26    2     -1.77      0.00
    0   26    3      6.28      0.00
    0   26    4     -3.70      0.00
    0   26    5     -0.89      0.00
    0   26    6     -4.41      0.00
    0   26    7     -3.75      0.00
    0   26    8     -1.23      0.00
    0   26    9     -3.48      0.00
    0   26   10      1.03      0.00
    0   26   11      0.68      0.00
    0   26   12      0.30      0.00
    0   26   13      1.08      0.00
    0   26   14     -0.73      0.00
    0   26   15     -0.61      0.00
    0   26   16      2.16      0.00
    0   26   17     -1.65      0.00
    0   26   18      2.36      0.00
    0   26   19      0.49      0.00
    0   28    0     -2.25      0.00
    0   28    1      4.58      0.00
    0   28    2     -5.02      0.00
    0   28    3      5.21      0.00
    0   28    4     -5.79      0.00
    0   28    5      1.65      0.00
    0   28    6     -4.91      0.00
    0   28    7     -2.55      0.00
    0   28    8     -2.52      0.00
    0   28    9     -0.03      0.00
    0   28   10      2.66      0.00
    0   28   11     -1.35      0.00
    0   28   12     -0.34      0.00
    0   28   13      0.92      0.00
    0   28   14     -1.88      0.00
    0   28   15     -0.79      0.00
    0   28   16      3.17      0.00
    0   28   17      2.31      0.00
    0   28   18      0.17      0.00
    0   30    0     -3.65      0.00
    0   30    1     -1.82      0.00
    0   30    2      0.19      0.00
    0   30    3      2.06      0.00
    0   30    4     -0.23      0.00
    0   30    5     -0.70      0.00
    0   30    6     -2.11      0.00
    0   30    7      2.36      0.00
    0   30    8      2.33      0.00
    0   30    9      0.23      0.00
    0   30   10     -2.27      0.00
    0   30   11     -0.28      0.00
    0   30   12     -3.86      0.00
    0   30   13     -0.47      0.00
    0   30   14     -2.63      0.00
    0   30   15      2.54      0.00
    0   30   16      2.47      0.00
    0   30   17      2.72      0.00
    0   32    0      6.14      0.00
    0   32    1      4.17      0.00
    0   32    2      4.18      0.00
    0   32    3     -1.12      0.00
    0   32    4      3.03      0.00
    0   32    5     -3.85      0.00
    0   32    6     -0.98      0.00
    0   32    7      0.24      0.00
    0   32    8     -0.80      0.00
    0   32    9      0.79      0.00
    0   32   10      0.29      0.00
    0   32   11      0.74      0.00
    0   32   12     -2.63      0.00
    0   32   13      4.12      0.00
    0   32   14     -0.87      0.00
    0   32   15      0.78      0.00
    0   32   16      0.72      0.00
    0   34    0     -6.78      0.00
    0   34    1     -4.02      0.00
    0   34    2      0.05      0.00
    0   34    3     -1.88      0.00
    0   34    4      3.83      0.00
    0   34    5     -1.32      0.00
    0   34    6     -1.24      0.00
    0   34    7      4.61      0.00
    0   34    8      1.03      0.00
    0   34    9     -0.74      0.00
    0   34   10     -2.44      0.00
    0   34   11     -1.27      0.00
    0   34   12      0.28      0.00
    0   34   13     -0.09      0.00
    0   34   14      0.55      0.00
    0   36    0      1.14      0.00
    0   36    1      2.07      0.00
    0   36    2      0.10      0.00
    0   36    3      0.76      0.00
    0   36    4      1.05      0.00
    0   36    5     -1.07      0.00
    0   36    6     -2.18      0.00
    0   36    7      4.99      0.00
    0   36    8     -0.59      0.00
    0   36    9      5.45      0.00
    0   36   10      3.23      0.00
    0   36   11      0.28      0.00
    0   36   12      0.54      0.00
    0   36   13     -5.02      0.00
    0   38    0     -2.12      0.00
    0   38    1     -0.34      0.00
    0   38    2     -0.18      0.00
    0   38    3      2.20      0.00
    0   38    4      0.81      0.00
    0   38    5      0.83      0.00
    0   38    6     -0.56      0.00
    0   38    7     -0.11      0.00
    0   38    8     -3.54      0.00
    0   38    9     -0.66      0.00
    0   38   10     -3.50      0.00
    0   38   11     -4.10      0.00
    0   40    0     -1.15      0.00
    0   40    1     -1.28      0.00
    0   40    2      0.89      0.00
    0   40    3      3.26      0.00
    0   40    4      1.06      0.00
    0   40    5     -0.88      0.00
    0   40    6     -1.08      0.00
    0   40    7     -3.74      0.00
    0   40    8     -1.87      0.00
    0   42    1      2.10      0.00
    0   42    2      1.11      0.00
    0   42    3      0.50      0.00
    0   42    4      0.95      0.00
    1    1   22     -4.79      0.00
    1    1   21      1.78      0.00
    1    1   20      0.32      0.00
    1    1   19      0.03      0.00
    1    1   18      2.52      0.00
    1    1   17     -0.54      0.00
    1    1   16      2.55      0.00
    1    1   15     -0.17      0.00
    1    1   14     -3.03      0.00
    1    1   13     -1.50      0.00
    1    1   12     -4.24      0.00
    1    1   11      0.67      0.00
    1    1   10     -5.36      0.00
    1    1    9     -0.06      0.00
    1    1    8     -0.05      0.00
    1    1    7     13.58      0.00
    1    1    6     14.09      0.00
    1    1    5     -2.80      0.00
    1    1    4     25.32      0.00
    1    1    3    -23.72      0.00
    1    3   22     -1.15      0.00
    1    3   21     -3.36      0.00
    1    3   20      1.55      0.00
    1    3   19     -1.72      0.00
    1    3   18      2.19      0.00
    1    3   17     -1.43      0.00
    1    3   16      0.34      0.00
    1    3   15     -1.26      0.00
    1    3   14     -4.69      0.00
    1    3   13     -0.99      0.00
    1    3   12     -1.27      0.00
    1    3   11      1.57      0.00
    1    3   10     -4.17      0.00
    1    3    9     -1.39      0.00
    1    3    8     -1.84      0.00
    1    3    7     -6.56      0.00
    1    3    6      1.36      0.00
    1    3    5    -22.80      0.00
    1    3    4     29.03      0.00
    1    3    3    -29.85      0.00
    1    3    2     51.88      0.00
    1    3    1    -24.39      0.00
    1    3    0    -12.14      0.00
    1    3   23      1.07      0.00
    1    5   22      2.43      0.00
    1    5   21      2.06      0.00
    1    5   20      4.19      0.00
    1    5   19     -1.82      0.00
    1    5   18      0.90      0.00
    1    5   17      0.37      0.00
    1    5   16      2.13      0.00
    1    5   15      3.27      0.00
    1    5   14     -0.13      0.00
    1    5   13     -1.65      0.00
    1    5   12     -3.17      0.00
    1    5   11      4.91      0.00
    1    5   10      0.09      0.00
    1    5    9      4.01      0.00
    1    5    8     -0.67      0.00
    1    5    7      4.92      0.00
    1    5    6     -1.52      0.00
    1    5    5    -19.73      0.00
    1    5    4      4.51      0.00
    1    5    3    -17.78      0.00
    1    5    2     52.07      0.00
    1    5    1    -42.84      0.00
    1    5    0    -20.86      0.00
    1    5   23     -1.89      0.00
    1    7   22      0.72      0.00
    1    7   21     -1.19      0.00
    1    7   20     -1.51      0.00
    1    7   19      0.32      0.00
    1    7   18     -1.23      0.00
    1    7   17      0.28      0.00
    1    7   16     -0.91      0.00
    1    7   15     -2.14      0.00
    1    7   14     -1.52      0.00
    1    7   13     -0.57      0.00
    1    7   12      2.09      0.00
    1    7   11      4.75      0.00
    1    7   10     -2.22      0.00
    1    7    9      6.36      0.00
    1    7    8     -6.25      0.00
    1    7    7      4.47      0.00
    1    7    6    -16.04      0.00
    1    7    5      9.20      0.00
    1    7    4    -12.70      0.00
    1    7    3     -3.25      0.00
    1    7    2     -6.26      0.00
    1    7    1     -8.84      0.00
    1    7    0     -1.29      0.00
    1    9   21      0.94      0.00
    1    9   20     -0.84      0.00
    1    9   19     -1.74      0.00
    1    9   18     -3.63      0.00
    1    9   17     -1.86      0.00
    1    9   16      0.84      0.00
    1    9   15      1.69      0.00
    1    9   14      2.28      0.00
    1    9   13     -5.25      0.00
    1    9   12     -1.16      0.00
    1    9   11      0.70      0.00
    1    9   10      0.49      0.00
    1    9    9     -3.14      0.00
    1    9    8     -5.84      0.00
    1    9    7     -1.15      0.00
    1    9    6    -17.32      0.00
    1    9    5     -2.64      0.00
    1    9    4    -26.11      0.00
    1    9    3     13.94      0.00
    1    9    2     16.26      0.00
    1    9    1     17.09      0.00
    1    9    0      6.95      0.00
    1    9   22      1.22      0.00
    1   11   21     -0.03      0.00
    1   11   20     -0.08      0.00
    1   11   19     -2.68      0.00
    1   11   18     -1.41      0.00
    1   11   17     -2.07      0.00
    1   11   16      0.25      0.00
    1   11   15     -0.20      0.00
    1   11   14      4.57      0.00
    1   11   13      1.95      0.00
    1   11   12      6.93      0.00
    1   11   11      1.32      0.00
    1   11   10      0.21      0.00
    1   11    9     -5.29      0.00
    1   11    8     -2.21      0.00
    1   11    7    -15.24      0.00
    1   11    6      3.07      0.00
    1   11    5      5.61      0.00
    1   11    4      5.89      0.00
    1   11    3     -5.08      0.00
    1   11    2     -0.90      0.00
    1   11    1    -11.87      0.00
    1   11    0     18.99      0.00
    1   11   22      3.80      0.00
    1   13   21     -2.78      0.00
    1   13   20      1.79      0.00
    1   13   19      1.57      0.00
    1   13   18     -0.40      0.00
    1   13   17     -0.44      0.00
    1   13   16      1.35      0.00
    1   13   15      2.99      0.00
    1   13   14      3.15      0.00
    1   13   13      0.05      0.00
    1   13   12      2.72      0.00
    1   13   11      4.60      0.00
    1   13   10     -0.86      0.00
    1   13    9     -1.29      0.00
    1   13    8     -1.72      0.00
    1   13    7     -8.32      0.00
    1   13    6      2.30      0.00
    1   13    5    -13.85      0.00
    1   13    4     -4.68      0.00
    1   13    3     -2.42      0.00
    1   13    2     15.04      0.00
    1   13    1     -3.24      0.00
    1   13    0      7.75      0.00
    1   13   22      0.51      0.00
    1   15   21      0.26      0.00
    1   15   20      0.03      0.00
    1   15   19      0.73      0.00
    1   15   18     -0.12      0.00
    1   15   17      0.38      0.00
    1   15   16     -1.35      0.00
    1   15   15     -0.05      0.00
    1   15   14     -0.53      0.00
    1   15   13      2.15      0.00
    1   15   12      0.68      0.00
    1   15   11      2.04      0.00
    1   15   10     -4.92      0.00
    1   15    9      3.23      0.00
    1   15    8     -7.49      0.00
    1   15    7     -5.56      0.00
    1   15    6     -0.61      0.00
    1   15    5      8.41      0.00
    1   15    4      5.51      0.00
    1   15    3      1.90      0.00
    1   15    2     -7.47      0.00
    1   15    1      0.25      0.00
    1   15    0     -4.54      0.00
    1   17   20      0.46      0.00
    1   17   19      0.20      0.00
    1   17   18     -3.34      0.00
    1   17   17     -3.40      0.00
    1   17   16     -0.85      0.00
    1   17   15      0.01      0.00
    1   17   14      0.32      0.00
    1   17   13      0.63      0.00
    1   17   12      0.96      0.00
    1   17   11      2.55      0.00
    1   17   10     -2.16      0.00
    1   17    9      1.69      0.00
    1   17    8     -3.04      0.00
    1   17    7      0.74      0.00
    1   17    6     -0.54      0.00
    1   17    5     -1.47      0.00
    1   17    4     -5.57      0.00
    1   17    3      5.48      0.00
    1   17    2      6.90      0.00
    1   17    1      6.34      0.00
    1   17    0     -4.18      0.00
    1   19   20     -3.56      0.00
    1   19   19     -0.65      0.00
    1   19   18      0.08      0.00
    1   19   17      1.52      0.00
    1   19   16      0.96      0.00
    1   19   15     -0.96      0.00
    1   19   14      0.14      0.00
    1   19   13     -0.92      0.00
    1   19   12      2.20      0.00
    1   19   11      1.61      0.00
    1   19   10      3.27      0.00
    1   19    9      2.35      0.00
    1   19    8      3.67      0.00
    1   19    7     -2.77      0.00
    1   19    6      0.44      0.00
    1   19    5     -0.04      0.00
    1   19    4      0.86      0.00
    1   19    3     -3.86      0.00
    1   19    2      3.01      0.00
    1   19    1      1.39      0.00
    1   19    0      5.06      0.00
    1   21   20     -0.66      0.00
    1   21   19      1.84      0.00
    1   21   18     -2.23      0.00
    1   21   17      0.28      0.00
    1   21   16      0.62      0.00
    1   21   15     -0.34      0.00
    1   21   14     -0.35      0.00
    1   21   13     -0.15      0.00
    1   21   12      1.11      0.00
    1   21   11     -2.31      0.00
    1   21   10      2.53      0.00
    1   21    9     -0.01      0.00
    1   21    8      4.09      0.00
    1   21    7     -0.41      0.00
    1   21    6      0.32      0.00
    1   21    5      1.31      0.00
    1   21    4     -0.69      0.00
    1   21    3      3.86      0.00
    1   21    2      6.03      0.00
    1   21    1      1.18      0.00
    1   21    0     -6.02      0.00
    1   23   19      0.97      0.00
    1   23   18      2.46      0.00
    1   23   17      2.07      0.00
    1   23   16      0.64      0.00
    1   23   15     -0.01      0.00
    1   23   14     -0.05      0.00
    1   23   13     -2.06      0.00
    1   23   12     -1.52      0.00
    1   23   11     -1.83      0.00
    1   23   10      1.88      0.00
    1   23    9     -1.46      0.00
    1   23    8      3.71      0.00
    1   23    7      4.87      0.00
    1   23    6     -0.38      0.00
    1   23    5      6.86      0.00
    1   23    4     -1.69      0.00
    1   23    3      2.55      0.00
    1   23    2     -1.84      0.00
    1   23    1      6.47      0.00
    1   23    0     -1.70      0.00
    1   25   19     -3.38      0.00
    1   25   18     -1.44      0.00
    1   25   17     -0.89      0.00
    1   25   16      1.73      0.00
    1   25   15      0.23      0.00
    1   25   14     -0.52      0.00
    1   25   13     -1.40      0.00
    1   25   12     -1.71      0.00
    1   25   11     -3.40      0.00
    1   25   10     -1.04      0.00
    1   25    9      1.69      0.00
    1   25    8      2.36      0.00
    1   25    7      5.20      0.00
    1   25    6      0.76      0.00
    1   25    5      4.95      0.00
    1   25    4     -1.31      0.00
    1   25    3     -0.15      0.00
    1   25    2     -0.26      0.00
    1   25    1     -2.75      0.00
    1   25    0     -7.97      0.00
    1   27   18      3.11      0.00
    1   27   17     -0.39      0.00
    1   27   16     -3.52      0.00
    1   27   15     -0.10      0.00
    1   27   14      1.47      0.00
    1   27   13      0.49      0.00
    1   27   12     -0.69      0.00
    1   27   11      2.28      0.00
    1   27   10     -0.28      0.00
    1   27    9      2.21      0.00
    1   27    8      1.74      0.00
    1   27    7      4.63      0.00
    1   27    6      2.39      0.00
    1   27    5      2.47      0.00
    1   27    4      3.10      0.00
    1   27    3     -2.43      0.00
    1   27    2     -0.06      0.00
    1   27    1     -2.63      0.00
    1   27    0      1.42      0.00
    1   29   17     -2.48      0.00
    1   29   16     -1.24      0.00
    1   29   15      1.99      0.00
    1   29   14     -0.66      0.00
    1   29   13      2.60      0.00
    1   29   12      1.91      0.00
    1   29   11      0.81      0.00
    1   29   10     -1.62      0.00
    1   29    9     -0.71      0.00
    1   29    8      0.57      0.00
    1   29    7      1.46      0.00
    1   29    6      2.24      0.00
    1   29    5      1.61      0.00
    1   29    4      0.40      0.00
    1   29    3     -1.68      0.00
    1   29    2      2.05      0.00
    1   29    1      0.67      0.00
    1   29    0     -0.10      0.00
    1   31   17      1.29      0.00
    1   31   16     -3.97      0.00
    1   31   15     -1.87      0.00
    1   31   14      0.40      0.00
    1   31   13      0.69      0.00
    1   31   12      1.73      0.00
    1   31   11      0.36      0.00
    1   31   10      2.28      0.00
    1   31    9      0.49      0.00
    1   31    8     -1.70      0.00
    1   31    7     -1.52      0.00
    1   31    6     -0.15      0.00
    1   31    5      2.86      0.00
    1   31    4     -0.50      0.00
    1   31    3      0.30      0.00
    1   31    2     -2.43      0.00
    1   31    1     -0.77      0.00
    1   31    0     -0.36      0.00
    1   33   16      0.70      0.00
    1   33   15      1.04      0.00
    1   33   14     -0.19      0.00
    1   33   13     -2.51      0.00
    1   33   12      1.76      0.00
    1   33   11      0.26      0.00
    1   33   10     -0.80      0.00
    1   33    9      2.31      0.00
    1   33    8      0.20      0.00
    1   33    7     -0.17      0.00
    1   33    6      0.04      0.00
    1   33    5      2.57      0.00
    1   33    4     -2.64      0.00
    1   33    3      1.08      0.00
    1   33    2     -0.89      0.00
    1   33    1      0.16      0.00
    1   33    0     -0.26      0.00
    1   35   15     -2.03      0.00
    1   35   14      0.63      0.00
    1   35   13      1.90      0.00
    1   35   12     -0.90      0.00
    1   35   11     -0.52      0.00
    1   35   10     -1.48      0.00
    1   35    9     -1.35      0.00
    1   35    8     -2.87      0.00
    1   35    7     -3.46      0.00
    1   35    6      0.77      0.00
    1   35    5      0.81      0.00
    1   35    4     -0.96      0.00
    1   35    3      1.14      0.00
    1   35    2      0.87      0.00
    1   35    1      2.32      0.00
    1   35    0      2.25      0.00
    1   37   13      3.16      0.00
    1   37   12     -0.57      0.00
    1   37   11      1.36      0.00
    1   37   10     -0.61      0.00
    1   37    9     -1.23      0.00
    1   37    8      3.24      0.00
    1   37    7     -2.57      0.00
    1   37    6      0.46      0.00
    1   37    5      0.03      0.00
    1   37    4     -0.19      0.00
    1   37    3     -2.19      0.00
    1   37    2     -0.74      0.00
    1   37    1     -0.43      0.00
    1   37    0      0.44      0.00
    1   39   11      2.76      0.00
    1   39   10      2.11      0.00
    1   39    9     -0.29      0.00
    1   39    8      3.87      0.00
    1   39    7      1.56      0.00
    1   39    6      1.95      0.00
    1   39    5     -1.00      0.00
    1   39    4     -0.41      0.00
    1   39    3     -1.11      0.00
    1   39    2      1.09      0.00
    1   39    1      1.20      0.00
    1   39    0      0.52      0.00
    1   41    8      3.21      0.00
    1   41    7      0.38      0.00
    1   41    6      1.85      0.00
    1   41    5      0.40      0.00
    1   41    4     -1.05      0.00
    1   41    3     -1.69      0.00
    1   41    2     -2.85      0.00
    1   41    1      0.81      0.00
    1   41    0      2.62      0.00
    1   43    7      2.58      0.00
    1   43    8      4.32      0.00
    2    0    0    171.76      0.00
    2    0    1     66.75      0.00
    2    0    2     29.57      0.00
    2    0    3      4.80      0.00
    2    0    4    -12.25      0.00
    2    0    5    -12.10      0.00
    2    0    6     -9.17      0.00
    2    0    7    -13.35      0.00
    2    0    8      0.78      0.00
    2    0    9      3.73      0.00
    2    0   10     -1.77      0.00
    2    0   11      2.70      0.00
    2    0   12      2.53      0.00
    2    0   13      4.58      0.00
    2    0   14      2.62      0.00
    2    0   15      0.52      0.00
    2    0   16      1.05      0.00
    2    0   17     -0.24      0.00
    2    0   18      0.43      0.00
    2    0   19     -1.32      0.00
    2    0   20     -3.66      0.00
    2    0   21      0.31      0.00
    2    0   22     -0.74      0.00
    2    2   21      1.46      0.00
    2    2   20      1.24      0.00
    2    2   19     -0.10      0.00
    2    2   18     -0.23      0.00
    2    2   17     -1.41      0.00
    2    2   16      1.34      0.00
    2    2   15      0.50      0.00
    2    2   14      1.27      0.00
    2    2   13      0.76      0.00
    2    2   12     -0.66      0.00
    2    2   11      2.77      0.00
    2    2   10      3.21      0.00
    2    2    9      1.69      0.00
    2    2    8     -2.52      0.00
    2    2    7     -5.57      0.00
    2    2    6      2.61      0.00
    2    2    5     -2.24      0.00
    2    2    4    -10.18      0.00
    2    2    3     10.35      0.00
    2    2    2      8.26      0.00
    2    2    1     17.66      0.00
    2    2    0     67.10      0.00
    2    2   22      0.20      0.00
    2    4   21      0.37      0.00
    2    4   20     -0.87      0.00
    2    4   19     -0.87      0.00
    2    4   18      0.96      0.00
    2    4   17     -1.15      0.00
    2    4   16     -1.36      0.00
    2    4   15      0.12      0.00
    2    4   14      1.11      0.00
    2    4   13      4.44      0.00
    2    4   12      1.65      0.00
    2    4   11     -2.17      0.00
    2    4   10     -0.80      0.00
    2    4    9      1.13      0.00
    2    4    8      6.02      0.00
    2    4    7      0.02      0.00
    2    4    6      7.40      0.00
    2    4    5      2.12      0.00
    2    4    4     -4.36      0.00
    2    4    3     -6.48      0.00
    2    4    2    -27.77      0.00
    2    4    1      4.13      0.00
    2    4    0     29.09      0.00
    2    4   22      2.38      0.00
    2    6   21     -4.44      0.00
    2    6   20     -2.30      0.00
    2    6   19     -1.97      0.00
    2    6   18     -1.85      0.00
    2    6   17     -0.40      0.00
    2    6   16     -0.43      0.00
    2    6   15      1.84      0.00
    2    6   14     -2.41      0.00
    2    6   13      1.13      0.00
    2    6   12     -2.61      0.00
    2    6   11     -2.16      0.00
    2    6   10     -0.94      0.00
    2    6    9     -5.63      0.00
    2    6    8     -0.43      0.00
    2    6    7     -6.22      0.00
    2    6    6     12.50      0.00
    2    6    5     -3.09      0.00
    2    6    4     12.49      0.00
    2    6    3      1.37      0.00
    2    6    2      4.23      0.00
    2    6    1      6.64      0.00
    2    6    0     20.40      0.00
    2    6   22     -2.26      0.00
    2    8   20      1.20      0.00
    2    8   19      0.48      0.00
    2    8   18      1.23      0.00
    2    8   17     -0.88      0.00
    2    8   16     -2.88      0.00
    2    8   15     -0.80      0.00
    2    8   14     -0.39      0.00
    2    8   13      4.67      0.00
    2    8   12     -0.09      0.00
    2    8   11     -0.39      0.00
    2    8   10     -1.67      0.00
    2    8    9      0.48      0.00
    2    8    8      4.27      0.00
    2    8    7      1.36      0.00
    2    8    6     11.61      0.00
    2    8    5     -1.98      0.00
    2    8    4     15.57      0.00
    2    8    3     -7.16      0.00
    2    8    2     -1.89      0.00
    2    8    1    -11.63      0.00
    2    8    0     -0.65      0.00
    2    8   21      2.28      0.00
    2   10   20     -0.11      0.00
    2   10   19      1.22      0.00
    2   10   18      0.13      0.00
    2   10   17      1.13      0.00
    2   10   16      0.09      0.00
    2   10   15     -0.74      0.00
    2   10   14     -1.54      0.00
    2   10   13     -0.61      0.00
    2   10   12     -3.27      0.00
    2   10   11     -0.89      0.00
    2   10   10     -0.54      0.00
    2   10    9      4.85      0.00
    2   10    8      1.77      0.00
    2   10    7     10.86      0.00
    2   10    6      2.54      0.00
    2   10    5      3.75      0.00
    2   10    4      2.33      0.00
    2   10    3     -2.90      0.00
    2   10    2     -7.69      0.00
    2   10    1     -3.29      0.00
    2   10    0    -10.70      0.00
    2   10   21     -2.87      0.00
    2   12   19     -0.95      0.00
    2   12   18      0.11      0.00
    2   12   17      0.07      0.00
    2   12   16     -1.38      0.00
    2   12   15     -3.99      0.00
    2   12   14     -3.77      0.00
    2   12   13     -3.42      0.00
    2   12   12     -4.34      0.00
    2   12   11     -3.42      0.00
    2   12   10      0.90      0.00
    2   12    9      4.40      0.00
    2   12    8      2.15      0.00
    2   12    7     10.81      0.00
    2   12    6     -5.09      0.00
    2   12    5      4.62      0.00
    2   12    4      1.36      0.00
    2   12    3      4.71      0.00
    2   12    2     -0.28      0.00
    2   12    1      0.83      0.00
    2   12    0     -8.99      0.00
    2   12   20     -0.30      0.00
    2   14   18      0.27      0.00
    2   14   17     -1.55      0.00
    2   14   16      1.29      0.00
    2   14   15     -2.39      0.00
    2   14   14      0.01      0.00
    2   14   13     -2.35      0.00
    2   14   12     -2.53      0.00
    2   14   11     -2.93      0.00
    2   14   10      1.30      0.00
    2   14    9      2.28      0.00
    2   14    8      3.28      0.00
    2   14    7      5.69      0.00
    2   14    6      0.66      0.00
    2   14    5      1.40      0.00
    2   14    4      1.85      0.00
    2   14    3     -7.40      0.00
    2   14    2     -0.05      0.00
    2   14    1     -5.75      0.00
    2   14    0      8.19      0.00
    2   14   19     -0.86      0.00
    2   14   20      1.44      0.00
    2   16   18     -1.66      0.00
    2   16   17     -0.61      0.00
    2   16   16     -0.20      0.00
    2   16   15     -1.99      0.00
    2   16   14      0.56      0.00
    2   16   13     -0.46      0.00
    2   16   12     -0.39      0.00
    2   16   11     -1.23      0.00
    2   16   10      1.45      0.00
    2   16    9      2.25      0.00
    2   16    8      1.49      0.00
    2   16    7      4.20      0.00
    2   16    6     -1.82      0.00
    2   16    5     -3.05      0.00
    2   16    4      0.35      0.00
    2   16    3     -1.97      0.00
    2   16    2      3.14      0.00
    2   16    1     -6.78      0.00
    2   16    0      1.74      0.00
    2   16   19     -2.55      0.00
    2   18   18      0.54      0.00
    2   18   17      2.51      0.00
    2   18   16     -0.05      0.00
    2   18   15     -0.72      0.00
    2   18   14     -1.29      0.00
    2   18   13     -1.31      0.00
    2   18   12     -1.86      0.00
    2   18   11     -2.54      0.00
    2   18   10     -0.48      0.00
    2   18    9      0.80      0.00
    2   18    8     -0.23      0.00
    2   18    7      2.20      0.00
    2   18    6     -3.40      0.00
    2   18    5      3.82      0.00
    2   18    4     -1.83      0.00
    2   18    3     -0.72      0.00
    2   18    2    -10.21      0.00
    2   18    1      0.81      0.00
    2   18    0     -1.08      0.00
    2   18   19      2.64      0.00
    2   20   17      0.53      0.00
    2   20   16     -0.82      0.00
    2   20   15     -0.22      0.00
    2   20   14      0.89      0.00
    2   20   13     -0.03      0.00
    2   20   12     -2.47      0.00
    2   20   11     -2.61      0.00
    2   20   10     -1.76      0.00
    2   20    9     -3.61      0.00
    2   20    8     -0.86      0.00
    2   20    7      0.05      0.00
    2   20    6      2.66      0.00
    2   20    5      2.22      0.00
    2   20    4     -1.33      0.00
    2   20    3      4.26      0.00
    2   20    2     -6.01      0.00
    2   20    1      0.80      0.00
    2   20    0     -7.23      0.00
    2   20   18     -0.79      0.00
    2   22   17      0.48      0.00
    2   22   16     -0.92      0.00
    2   22   15     -0.13      0.00
    2   22   14     -0.22      0.00
    2   22   13      0.88      0.00
    2   22   12      1.11      0.00
    2   22   11      0.70      0.00
    2   22   10     -0.84      0.00
    2   22    9     -1.62      0.00
    2   22    8      0.99      0.00
    2   22    7     -5.92      0.00
    2   22    6     -0.41      0.00
    2   22    5     -4.64      0.00
    2   22    4     -0.73      0.00
    2   22    3     -3.11      0.00
    2   22    2     -5.59      0.00
    2   22    1     -0.19      0.00
    2   22    0      4.12      0.00
    2   22   18     -1.33      0.00
    2   24   17     -1.20      0.00
    2   24   16     -4.78      0.00
    2   24   15     -1.48      0.00
    2   24   14     -0.25      0.00
    2   24   13      1.15      0.00
    2   24   12      1.61      0.00
    2   24   11      1.02      0.00
    2   24   10      0.89      0.00
    2   24    9     -1.76      0.00
    2   24    8     -4.68      0.00
    2   24    7     -6.03      0.00
    2   24    6      0.84      0.00
    2   24    5     -4.01      0.00
    2   24    4     -0.16      0.00
    2   24    3      0.31      0.00
    2   24    2     -0.35      0.00
    2   24    1     -2.92      0.00
    2   24    0     -0.07      0.00
    2   26   16      1.54      0.00
    2   26   15      1.46      0.00
    2   26   14     -1.68      0.00
    2   26   13     -0.39      0.00
    2   26   12      0.39      0.00
    2   26   11      0.16      0.00
    2   26   10     -0.22      0.00
    2   26    9      0.22      0.00
    2   26    8     -1.94      0.00
    2   26    7     -2.76      0.00
    2   26    6     -5.03      0.00
    2   26    5     -4.19      0.00
    2   26    4     -0.77      0.00
    2   26    3      1.44      0.00
    2   26    2      0.26      0.00
    2   26    1      3.91      0.00
    2   26    0      5.57      0.00
    2   28   16     -0.13      0.00
    2   28   15     -0.13      0.00
    2   28   14     -1.40      0.00
    2   28   13      0.23      0.00
    2   28   12     -2.91      0.00
    2   28   11     -0.72      0.00
    2   28   10      0.25      0.00
    2   28    9     -0.08      0.00
    2   28    8     -4.90      0.00
    2   28    7     -1.35      0.00
    2   28    6     -1.67      0.00
    2   28    5     -1.06      0.00
    2   28    4     -1.93      0.00
    2   28    3      0.67      0.00
    2   28    2     -1.41      0.00
    2   28    1     -1.14      0.00
    2   28    0     -2.06      0.00
    2   30   15      2.22      0.00
    2   30   14     -0.36      0.00
    2   30   13     -2.88      0.00
    2   30   12     -3.01      0.00
    2   30   11     -0.73      0.00
    2   30   10     -1.19      0.00
    2   30    9     -0.22      0.00
    2   30    8      1.81      0.00
    2   30    7      0.01      0.00
    2   30    6     -1.40      0.00
    2   30    5     -2.75      0.00
    2   30    4     -1.39      0.00
    2   30    3      0.20      0.00
    2   30    2      0.04      0.00
    2   30    1     -0.84      0.00
    2   30    0      1.36      0.00
    2   32   15     -1.23      0.00
    2   32   14      1.53      0.00
    2   32   13     -0.28      0.00
    2   32   12      0.03      0.00
    2   32   11     -0.32      0.00
    2   32   10      0.96      0.00
    2   32    9     -3.48      0.00
    2   32    8      0.04      0.00
    2   32    7     -0.47      0.00
    2   32    6      1.52      0.00
    2   32    5     -1.13      0.00
    2   32    4     -0.15      0.00
    2   32    3     -0.10      0.00
    2   32    2      0.62      0.00
    2   32    1     -1.42      0.00
    2   32    0      1.34      0.00
    2   34   14      1.97      0.00
    2   34   13     -2.08      0.00
    2   34   12      0.15      0.00
    2   34   11     -0.02      0.00
    2   34   10      0.89      0.00
    2   34    9      0.29      0.00
    2   34    8      2.04      0.00
    2   34    7      0.93      0.00
    2   34    6      0.48      0.00
    2   34    5     -1.05      0.00
    2   34    4     -2.15      0.00
    2   34    3     -1.08      0.00
    2   34    2     -1.51      0.00
    2   34    1     -2.87      0.00
    2   34    0     -1.98      0.00
    2   36   13     -1.55      0.00
    2   36   12      2.37      0.00
    2   36   11      2.40      0.00
    2   36   10      0.85      0.00
    2   36    9     -0.38      0.00
    2   36    8     -2.30      0.00
    2   36    7      0.33      0.00
    2   36    6      1.34      0.00
    2   36    5     -0.93      0.00
    2   36    4      0.68      0.00
    2   36    3      0.82      0.00
    2   36    2     -1.29      0.00
    2   36    1      0.17      0.00
    2   36    0     -0.67      0.00
    2   38   12      0.39      0.00
    2   38   11     -2.04      0.00
    2   38   10     -1.68      0.00
    2   38    9      1.88      0.00
    2   38    8     -1.22      0.00
    2   38    7      0.77      0.00
    2   38    6      2.16      0.00
    2   38    5     -1.65      0.00
    2   38    4      0.24      0.00
    2   38    3      0.26      0.00
    2   38    2     -0.51      0.00
    2   38    1      0.02      0.00
    2   38    0     -2.71      0.00
    2   40   10     -0.26      0.00
    2   40    9     -0.02      0.00
    2   40    8     -5.13      0.00
    2   40    7     -1.36      0.00
    2   40    6     -2.52      0.00
    2   40    5      0.22      0.00
    2   40    2     -1.02      0.00
    2   40    1     -1.55      0.00
    2   40    0     -2.60      0.00
    2   40    3      0.47      0.00
    2   40    4      1.44      0.00
    2   42    7      2.45      0.00
    2   42    6     -0.75      0.00
    2   42    0     -1.51      0.00
    2   42    1     -1.17      0.00
    2   42    2      0.85      0.00
    2   42    3     -1.17      0.00
    2   42    4     -0.01      0.00
    2   42    5      0.20      0.00
    2   42    8     -1.70      0.00
    2   44    0      2.17      0.00
    2   44    1     -0.33      0.00
    2   44    2      1.37      0.00
    3    1   21     -3.71      0.00
    3    1   20      6.04      0.00
    3    1   19     -0.68      0.00
    3    1   18      1.24      0.00
    3    1   17     -0.68      0.00
    3    1   16      0.35      0.00
    3    1   15     -3.37      0.00
    3    1   14     -1.20      0.00
    3    1   13     -2.57      0.00
    3    1   12     -0.79      0.00
    3    1   11     -2.45      0.00
    3    1   10     -2.07      0.00
    3    1    9     -3.27      0.00
    3    1    8      0.99      0.00
    3    1    7      8.92      0.00
    3    1    6     -0.23      0.00
    3    1    5     10.91      0.00
    3    1    4      5.46      0.00
    3    1    3     -6.65      0.00
    3    1    2    -20.63      0.00
    3    1    1    -42.74      0.00
    3    1    0    -87.21      0.00
    3    1   22      7.92      0.00
    3    3   21     -2.46      0.00
    3    3   20     -0.97      0.00
    3    3   19      1.85      0.00
    3    3   18     -2.19      0.00
    3    3   17      2.21      0.00
    3    3   16      1.19      0.00
    3    3   15      0.64      0.00
    3    3   14     -2.06      0.00
    3    3   13     -1.43      0.00
    3    3   12     -0.61      0.00
    3    3   11     -0.04      0.00
    3    3   10     -2.30      0.00
    3    3    9     -2.85      0.00
    3    3    8     -0.50      0.00
    3    3    4      6.24      0.00
    3    3    3     -0.20      0.00
    3    3    2      9.45      0.00
    3    3    1     -5.47      0.00
    3    3    0    -20.95      0.00
    3    3    5      1.36      0.00
    3    3    6     -5.94      0.00
    3    3    7      1.60      0.00
    3    3   22     -2.83      0.00
    3    5   20     -0.72      0.00
    3    5   19      3.97      0.00
    3    5   18      1.55      0.00
    3    5   17      3.02      0.00
    3    5   16     -0.88      0.00
    3    5   15     -0.31      0.00
    3    5   14     -2.13      0.00
    3    5   13     -0.98      0.00
    3    5   12      0.57      0.00
    3    5   11      1.99      0.00
    3    5   10      2.49      0.00
    3    5    9      0.74      0.00
    3    5    8     -0.12      0.00
    3    5    7     -1.40      0.00
    3    5    5     -1.88      0.00
    3    5    4      0.81      0.00
    3    5    3     -0.46      0.00
    3    5    2     11.53      0.00
    3    5    1     -8.36      0.00
    3    5    0    -16.79      0.00
    3    5    6     -5.16      0.00
    3    5   21      6.42      0.00
    3    7   19      2.44      0.00
    3    7   18     -0.14      0.00
    3    7   17      0.18      0.00
    3    7   16      2.39      0.00
    3    7   15      1.06      0.00
    3    7   14     -0.47      0.00
    3    7   13     -1.38      0.00
    3    7   12      0.45      0.00
    3    7   11     -0.68      0.00
    3    7   10      1.75      0.00
    3    7    9     -0.15      0.00
    3    7    8      1.56      0.00
    3    7    7     -0.78      0.00
    3    7    6     -4.55      0.00
    3    7    5     -1.81      0.00
    3    7    4     -5.36      0.00
    3    7    3     -2.97      0.00
    3    7    2     -1.37      0.00
    3    7    1     -1.54      0.00
    3    7    0     -3.19      0.00
    3    7   20     -0.05      0.00
    3    7   21      1.01      0.00
    3    9   19      0.31      0.00
    3    9   18      2.36      0.00
    3    9   16      1.57      0.00
    3    9   15     -0.18      0.00
    3    9   14      0.00      0.00
    3    9   13     -1.77      0.00
    3    9   12      0.96      0.00
    3    9   11      0.73      0.00
    3    9   10      1.27      0.00
    3    9    9     -0.90      0.00
    3    9    8     -2.16      0.00
    3    9    7     -6.46      0.00
    3    9    6     -4.78      0.00
    3    9    5     -5.18      0.00
    3    9    4     -7.02      0.00
    3    9    3      3.50      0.00
    3    9    2      7.00      0.00
    3    9    1      8.55      0.00
    3    9    0      6.86      0.00
    3    9   17      1.02      0.00
    3    9   20     -2.67      0.00
    3   11   19      0.86      0.00
    3   11   16      2.17      0.00
    3   11   15      1.27      0.00
    3   11   14      2.65      0.00
    3   11   13      2.52      0.00
    3   11   12      2.42      0.00
    3   11   11      3.32      0.00
    3   11   10     -1.64      0.00
    3   11    9     -3.02      0.00
    3   11    8     -4.75      0.00
    3   11    7     -6.27      0.00
    3   11    6      1.43      0.00
    3   11    5      0.11      0.00
    3   11    4     -0.48      0.00
    3   11    3      0.58      0.00
    3   11    2     -0.75      0.00
    3   11    1      1.66      0.00
    3   11    0      7.07      0.00
    3   11   17     -0.04      0.00
    3   11   18      0.57      0.00
    3   11   20      1.01      0.00
    3   13   16     -1.97      0.00
    3   13   15      2.63      0.00
    3   13   14      3.12      0.00
    3   13   13      4.19      0.00
    3   13   12      3.64      0.00
    3   13   11      4.24      0.00
    3   13   10     -2.03      0.00
    3   13    9     -1.31      0.00
    3   13    8     -3.50      0.00
    3   13    7     -5.10      0.00
    3   13    6     -1.93      0.00
    3   13    5     -2.39      0.00
    3   13    4     -3.70      0.00
    3   13    3      1.35      0.00
    3   13    2      0.63      0.00
    3   13    1      1.77      0.00
    3   13    0     -0.67      0.00
    3   13   17      1.58      0.00
    3   13   18      4.10      0.00
    3   13   19      1.83      0.00
    3   15   15      1.87      0.00
    3   15   14      0.01      0.00
    3   15   13      0.50      0.00
    3   15   12      0.84      0.00
    3   15   11      1.21      0.00
    3   15   10     -0.58      0.00
    3   15    9     -3.60      0.00
    3   15    8     -3.54      0.00
    3   15    7     -2.88      0.00
    3   15    6      0.84      0.00
    3   15    5      2.26      0.00
    3   15    4      0.51      0.00
    3   15    3      1.57      0.00
    3   15    2      0.25      0.00
    3   15    1      3.78      0.00
    3   15    0      0.14      0.00
    3   15   16     -0.62      0.00
    3   15   17      1.37      0.00
    3   15   18      0.74      0.00
    3   15   19     -1.19      0.00
    3   17   15      2.09      0.00
    3   17   14      2.55      0.00
    3   17   13      0.91      0.00
    3   17   12      3.28      0.00
    3   17   11      0.07      0.00
    3   17   10     -0.55      0.00
    3   17    9     -2.62      0.00
    3   17    8      0.93      0.00
    3   17    7     -2.59      0.00
    3   17    6      1.22      0.00
    3   17    5     -0.50      0.00
    3   17    4      0.59      0.00
    3   17    3      1.35      0.00
    3   17    2      4.30      0.00
    3   17    1      2.06      0.00
    3   17    0      0.05      0.00
    3   17   16      0.56      0.00
    3   17   17      1.19      0.00
    3   17   18      6.56      0.00
    3   17   19      4.02      0.00
    3   19   15     -0.78      0.00
    3   19   14      0.20      0.00
    3   19   13      1.90      0.00
    3   19   12      3.66      0.00
    3   19   11      0.94      0.00
    3   19   10      2.88      0.00
    3   19    9     -0.51      0.00
    3   19    8     -0.42      0.00
    3   19    7     -1.81      0.00
    3   19    6     -0.59      0.00
    3   19    5     -1.05      0.00
    3   19    4     -1.85      0.00
    3   19    3      2.07      0.00
    3   19    2      2.76      0.00
    3   19    1      2.34      0.00
    3   19    0      0.69      0.00
    3   19   16     -1.24      0.00
    3   19   17     -2.13      0.00
    3   19   18     -1.13      0.00
    3   19   19     -0.13      0.00
    3   21   14     -0.48      0.00
    3   21   13      0.17      0.00
    3   21   12      1.92      0.00
    3   21   11      0.19      0.00
    3   21   10      1.68      0.00
    3   21    9      2.12      0.00
    3   21    8      2.24      0.00
    3   21    7      2.94      0.00
    3   21    6     -1.77      0.00
    3   21    5      1.94      0.00
    3   21    4     -2.70      0.00
    3   21    3      3.26      0.00
    3   21    2      1.26      0.00
    3   21    1      2.47      0.00
    3   21    0     -2.66      0.00
    3   21   15      0.65      0.00
    3   21   16      0.72      0.00
    3   21   17     -0.72      0.00
    3   21   18      2.38      0.00
    3   21   19      5.94      0.00
    3   23   14      0.28      0.00
    3   23   13     -1.72      0.00
    3   23   12      0.25      0.00
    3   23   11     -1.48      0.00
    3   23   10      0.30      0.00
    3   23    9      1.80      0.00
    3   23    8      1.81      0.00
    3   23    7      4.08      0.00
    3   23    6      1.21      0.00
    3   23    5      3.45      0.00
    3   23    4      0.16      0.00
    3   23    3      1.72      0.00
    3   23    2      3.11      0.00
    3   23    1      1.06      0.00
    3   23    0      0.03      0.00
    3   23   15     -1.33      0.00
    3   23   16      4.70      0.00
    3   23   17      0.75      0.00
    3   23   18      2.74      0.00
    3   25   14      2.99      0.00
    3   25   13     -0.78      0.00
    3   25   12      1.97      0.00
    3   25   11     -2.40      0.00
    3   25   10     -1.21      0.00
    3   25    9      0.50      0.00
    3   25    8      4.64      0.00
    3   25    7      3.68      0.00
    3   25    6      3.11      0.00
    3   25    5      2.56      0.00
    3   25    4      2.29      0.00
    3   25    3     -2.03      0.00
    3   25    2      2.42      0.00
    3   25    1     -3.60      0.00
    3   25    0     -1.14      0.00
    3   25   15     -1.06      0.00
    3   25   16      1.97      0.00
    3   27   13     -1.37      0.00
    3   27   12      3.27      0.00
    3   27   11      0.02      0.00
    3   27   10      0.93      0.00
    3   27    9     -0.30      0.00
    3   27    8      1.49      0.00
    3   27    7      0.07      0.00
    3   27    6      3.22      0.00
    3   27    5      1.72      0.00
    3   27    4      0.97      0.00
    3   27    3     -2.76      0.00
    3   27    2      1.47      0.00
    3   27    1     -1.02      0.00
    3   27    0      0.16      0.00
    3   27   14      0.38      0.00
    3   27   15     -0.78      0.00
    3   29   12      2.30      0.00
    3   29   11      1.10      0.00
    3   29   10     -0.91      0.00
    3   29    9      0.86      0.00
    3   29    8      1.79      0.00
    3   29    7      2.95      0.00
    3   29    6      0.28      0.00
    3   29    5      1.88      0.00
    3   29    4      1.57      0.00
    3   29    3     -0.51      0.00
    3   29    2      0.43      0.00
    3   29    1      0.88      0.00
    3   29    0     -0.20      0.00
    3   29   13      2.21      0.00
    3   29   14     -0.14      0.00
    3   31   12      0.05      0.00
    3   31   11      2.81      0.00
    3   31   10      0.33      0.00
    3   31    9      2.33      0.00
    3   31    8     -2.70      0.00
    3   31    7      0.23      0.00
    3   31    6     -1.68      0.00
    3   31    5      3.41      0.00
    3   31    4      1.75      0.00
    3   31    3      0.27      0.00
    3   31    2      0.27      0.00
    3   31    1      1.30      0.00
    3   31    0      0.45      0.00
    3   31   13      2.20      0.00
    3   33   11      0.61      0.00
    3   33   10     -1.85      0.00
    3   33    9     -0.83      0.00
    3   33    8      0.05      0.00
    3   33    7      0.91      0.00
    3   33    6     -0.68      0.00
    3   33    4      1.00      0.00
    3   33    3     -0.99      0.00
    3   33    2      0.54      0.00
    3   33    1      1.84      0.00
    3   33    0      2.63      0.00
    3   33    5     -0.13      0.00
    3   33   12     -2.09      0.00
    3   35   11      0.49      0.00
    3   35   10      0.70      0.00
    3   35    9      0.83      0.00
    3   35    8      1.46      0.00
    3   35    7     -0.84      0.00
    3   35    4      4.92      0.00
    3   35    3      0.69      0.00
    3   35    2      3.09      0.00
    3   35    1      0.99      0.00
    3   35    0      1.89      0.00
    3   35    5      0.38      0.00
    3   35    6     -0.56      0.00
    3   37   10     -0.06      0.00
    3   37    9     -0.59      0.00
    3   37    8     -0.83      0.00
    3   37    7     -0.44      0.00
    3   37    4     -0.73      0.00
    3   37    3     -3.37      0.00
    3   37    2     -0.41      0.00
    3   37    1     -0.28      0.00
    3   37    0      2.16      0.00
    3   37    5      0.72      0.00
    3   37    6     -1.85      0.00
    3   39    9      0.99      0.00
    3   39    8      2.09      0.00
    3   39    3      2.77      0.00
    3   39    2      2.14      0.00
    3   39    1      2.04      0.00
    3   39    0     -1.02      0.00
    3   39    4     -0.48      0.00
    3   39    5      1.05      0.00
    3   39    6     -2.35      0.00
    3   39    7      1.50      0.00
    3   41    0      3.64      0.00
    3   41    1      4.84      0.00
    3   41    2     -1.13      0.00
    3   41    3     -0.33      0.00
    3   41    4     -2.93      0.00
    3   41    5      1.98      0.00
    3   41    6      0.99      0.00
    3   41    7     -0.92      0.00
    3   43    0     -4.54      0.00
    3   43    1     -1.85      0.00
    3   43    2      1.15      0.00
    3   43    3      2.93      0.00
    3   43    4      1.07      0.00
    3   43    5      2.89      0.00
    4    0    0     64.17      0.00
    4    0    1     42.21      0.00
    4    0    2     17.60      0.00
    4    0    3      8.23      0.00
    4    0    4     -2.28      0.00
    4    0    5     -7.64      0.00
    4    0    6     -2.83      0.00
    4    0    7     -6.89      0.00
    4    0    8     -1.79      0.00
    4    0    9      1.06      0.00
    4    0   10      5.31      0.00
    4    0   11      3.81      0.00
    4    0   12      0.87      0.00
    4    0   13      1.66      0.00
    4    0   14      0.91      0.00
    4    0   15      7.61      0.00
    4    0   16     -3.27      0.00
    4    0   17      1.32      0.00
    4    0   18     -3.76      0.00
    4    0   19     -2.28      0.00
    4    0   20     -3.32      0.00
    4    0   21      1.70      0.00
    4    2   18      0.75      0.00
    4    2   17      0.98      0.00
    4    2   16     -3.55      0.00
    4    2   15      0.80      0.00
    4    2   14      0.56      0.00
    4    2   13      3.95      0.00
    4    2   12     -1.35      0.00
    4    2   11     -0.76      0.00
    4    2   10      3.37      0.00
    4    2    9      4.74      0.00
    4    2    8     -1.57      0.00
    4    2    7     -2.27      0.00
    4    2    6      0.30      0.00
    4    2    5     -1.36      0.00
    4    2    4     -4.03      0.00
    4    2    3      1.99      0.00
    4    2    2      2.61      0.00
    4    2    1     22.93      0.00
    4    2    0     37.85      0.00
    4    2   19      0.72      0.00
    4    2   20     -0.81      0.00
    4    2   21     -4.27      0.00
    4    4   18      0.50      0.00
    4    4   17     -3.12      0.00
    4    4   16     -1.54      0.00
    4    4   15      0.74      0.00
    4    4   14      2.35      0.00
    4    4   13      0.83      0.00
    4    4   12     -1.16      0.00
    4    4   11      1.35      0.00
    4    4   10     -0.68      0.00
    4    4    9      1.16      0.00
    4    4    8     -2.89      0.00
    4    4    7      2.38      0.00
    4    4    6      0.21      0.00
    4    4    5      2.34      0.00
    4    4    4     -2.19      0.00
    4    4    3     -0.49      0.00
    4    4    2     -9.68      0.00
    4    4    1      3.17      0.00
    4    4    0      9.75      0.00
    4    4   19     -4.76      0.00
    4    4   20     -0.15      0.00
    4    6   18     -1.91      0.00
    4    6   17     -2.78      0.00
    4    6   16     -0.24      0.00
    4    6   15     -0.55      0.00
    4    6   14      2.11      0.00
    4    6   13      1.19      0.00
    4    6   12     -1.37      0.00
    4    6   11     -2.22      0.00
    4    6   10     -1.37      0.00
    4    6    9      0.61      0.00
    4    6    8     -1.92      0.00
    4    6    7      1.96      0.00
    4    6    6      2.83      0.00
    4    6    5      3.44      0.00
    4    6    4      2.94      0.00
    4    6    3      0.66      0.00
    4    6    2     -2.94      0.00
    4    6    1      6.24      0.00
    4    6    0     10.65      0.00
    4    6   19     -0.72      0.00
    4    6   20      3.84      0.00
    4    8   18      0.46      0.00
    4    8   17      2.14      0.00
    4    8   16     -2.89      0.00
    4    8   15      0.25      0.00
    4    8   13      1.02      0.00
    4    8   12      1.37      0.00
    4    8   11      0.35      0.00
    4    8   10     -1.21      0.00
    4    8    9      0.26      0.00
    4    8    8      1.76      0.00
    4    8    7      3.15      0.00
    4    8    6      2.67      0.00
    4    8    5      3.04      0.00
    4    8    4      4.76      0.00
    4    8    3      1.48      0.00
    4    8    2     -2.66      0.00
    4    8    1     -3.06      0.00
    4    8    0     -3.39      0.00
    4    8   14      2.27      0.00
    4    8   19     -4.05      0.00
    4   10   18     -4.05      0.00
    4   10   17     -2.08      0.00
    4   10   16     -1.93      0.00
    4   10   13     -0.49      0.00
    4   10   12     -1.85      0.00
    4   10   11     -2.07      0.00
    4   10   10     -0.35      0.00
    4   10    9      1.49      0.00
    4   10    8      2.38      0.00
    4   10    7      3.90      0.00
    4   10    6      1.42      0.00
    4   10    5      3.46      0.00
    4   10    4      2.08      0.00
    4   10    3     -0.58      0.00
    4   10    2     -3.95      0.00
    4   10    1     -3.69      0.00
    4   10    0     -4.32      0.00
    4   10   14     -1.71      0.00
    4   10   15      0.49      0.00
    4   10   19      2.67      0.00
    4   12   12     -4.21      0.00
    4   12   11     -3.37      0.00
    4   12   10     -1.36      0.00
    4   12    9      1.09      0.00
    4   12    8      5.20      0.00
    4   12    7      4.42      0.00
    4   12    6      1.68      0.00
    4   12    5      0.55      0.00
    4   12    4      0.30      0.00
    4   12    3      1.48      0.00
    4   12    2      1.07      0.00
    4   12    1     -1.04      0.00
    4   12    0     -1.41      0.00
    4   12   13     -2.75      0.00
    4   12   14     -3.00      0.00
    4   12   15     -0.23      0.00
    4   12   16     -0.70      0.00
    4   12   17      0.96      0.00
    4   12   18     -2.66      0.00
    4   12   19     -6.60      0.00
    4   14   12     -1.45      0.00
    4   14   11     -1.71      0.00
    4   14   10      1.54      0.00
    4   14    6      1.47      0.00
    4   14    5      0.54      0.00
    4   14    4      1.40      0.00
    4   14    3      0.33      0.00
    4   14    2     -0.57      0.00
    4   14    1     -0.34      0.00
    4   14    0      0.80      0.00
    4   14    7      2.36      0.00
    4   14    8      3.15      0.00
    4   14    9      0.29      0.00
    4   14   13     -0.05      0.00
    4   14   14     -3.08      0.00
    4   14   15     -0.33      0.00
    4   14   16      2.71      0.00
    4   14   17     -3.53      0.00
    4   14   18     -2.34      0.00
    4   14   19      2.61      0.00
    4   16   12     -1.12      0.00
    4   16   11     -1.43      0.00
    4   16   10      2.15      0.00
    4   16    9      2.15      0.00
    4   16    5     -1.56      0.00
    4   16    4     -1.64      0.00
    4   16    3     -0.71      0.00
    4   16    2     -2.67      0.00
    4   16    1     -0.74      0.00
    4   16    0     -2.01      0.00
    4   16    6     -0.94      0.00
    4   16    7      2.20      0.00
    4   16    8      2.85      0.00
    4   16   13     -2.98      0.00
    4   16   14     -2.20      0.00
    4   16   15     -1.94      0.00
    4   16   16      0.91      0.00
    4   16   17     -1.21      0.00
    4   16   18     -1.77      0.00
    4   16   19     -6.18      0.00
    4   18   12     -1.30      0.00
    4   18   11     -1.77      0.00
    4   18   10      1.45      0.00
    4   18    9      0.07      0.00
    4   18    5      0.81      0.00
    4   18    4      2.23      0.00
    4   18    3     -0.94      0.00
    4   18    2     -3.34      0.00
    4   18    1     -0.28      0.00
    4   18    0     -2.91      0.00
    4   18    6      0.74      0.00
    4   18    7      1.60      0.00
    4   18    8     -0.29      0.00
    4   18   13     -3.38      0.00
    4   18   14     -0.43      0.00
    4   18   15      0.11      0.00
    4   18   16      2.99      0.00
    4   18   17     -2.53      0.00
    4   18   18     -5.11      0.00
    4   20   11     -1.40      0.00
    4   20   10     -0.82      0.00
    4   20    9     -1.12      0.00
    4   20    5     -0.99      0.00
    4   20    4      1.89      0.00
    4   20    3     -2.64      0.00
    4   20    2     -2.08      0.00
    4   20    1      0.04      0.00
    4   20    0     -0.21      0.00
    4   20    6      1.46      0.00
    4   20    7     -1.58      0.00
    4   20    8     -0.68      0.00
    4   20   12     -0.28      0.00
    4   20   13     -4.60      0.00
    4   20   14      1.00      0.00
    4   20   15      0.88      0.00
    4   20   16      0.95      0.00
    4   20   17      1.81      0.00
    4   20   18     -0.04      0.00
    4   22   11     -1.43      0.00
    4   22   10      0.84      0.00
    4   22    9     -2.80      0.00
    4   22    5     -1.93      0.00
    4   22    4      1.19      0.00
    4   22    3     -1.27      0.00
    4   22    2     -1.52      0.00
    4   22    1      0.34      0.00
    4   22    0      3.07      0.00
    4   22    6     -0.48      0.00
    4   22    7     -2.90      0.00
    4   22    8     -2.65      0.00
    4   22   12      1.27      0.00
    4   22   13     -0.88      0.00
    4   22   14      3.97      0.00
    4   22   15      0.17      0.00
    4   22   16      0.26      0.00
    4   22   17     -1.02      0.00
    4   22   18     -4.05      0.00
    4   24   10      2.12      0.00
    4   24    9     -0.65      0.00
    4   24    5     -1.81      0.00
    4   24    4     -1.87      0.00
    4   24    3     -0.21      0.00
    4   24    2     -1.83      0.00
    4   24    1     -1.45      0.00
    4   24    0     -0.68      0.00
    4   24    6     -2.60      0.00
    4   24    7     -2.76      0.00
    4   24    8     -3.12      0.00
    4   24   11      0.29      0.00
    4   24   12      0.79      0.00
    4   24   13     -5.26      0.00
    4   24   14      1.21      0.00
    4   24   15     -0.58      0.00
    4   24   16     -0.65      0.00
    4   24   17     -3.31      0.00
    4   26   10      1.74      0.00
    4   26    9     -0.95      0.00
    4   26    5     -1.75      0.00
    4   26    4     -0.59      0.00
    4   26    3      1.16      0.00
    4   26    2     -0.80      0.00
    4   26    1      1.04      0.00
    4   26    0      5.90      0.00
    4   26    6     -2.23      0.00
    4   26    7     -0.46      0.00
    4   26    8     -2.44      0.00
    4   26   11     -1.14      0.00
    4   26   12     -0.43      0.00
    4   26   13     -0.71      0.00
    4   26   14      3.16      0.00
    4   26   15     -0.68      0.00
    4   26   16      2.17      0.00
    4   28    5     -1.87      0.00
    4   28    4      0.14      0.00
    4   28    3      2.22      0.00
    4   28    2      2.77      0.00
    4   28    1     -2.64      0.00
    4   28    0      0.82      0.00
    4   28    6     -1.32      0.00
    4   28    7     -2.82      0.00
    4   28    8     -0.37      0.00
    4   28    9     -1.55      0.00
    4   28   10      1.21      0.00
    4   28   11     -1.67      0.00
    4   28   12      1.16      0.00
    4   28   13     -3.32      0.00
    4   28   14      0.04      0.00
    4   28   15      0.80      0.00
    4   30    5     -3.06      0.00
    4   30    4     -1.92      0.00
    4   30    3     -0.59      0.00
    4   30    2     -1.31      0.00
    4   30    1     -1.90      0.00
    4   30    0     -0.22      0.00
    4   30    6      1.96      0.00
    4   30    7     -0.85      0.00
    4   30    8      0.10      0.00
    4   30    9     -0.87      0.00
    4   30   10     -0.10      0.00
    4   30   11     -4.00      0.00
    4   30   12     -1.77      0.00
    4   30   13     -2.45      0.00
    4   30   14      1.52      0.00
    4   32    5     -1.92      0.00
    4   32    4     -0.48      0.00
    4   32    3      2.35      0.00
    4   32    2      0.09      0.00
    4   32    1      0.70      0.00
    4   32    0     -5.56      0.00
    4   32    6      0.11      0.00
    4   32    7     -1.88      0.00
    4   32    8     -0.03      0.00
    4   32    9      2.99      0.00
    4   32   10     -3.13      0.00
    4   32   11      1.83      0.00
    4   32   12      2.53      0.00
    4   32   13      1.21      0.00
    4   34    4     -3.77      0.00
    4   34    3     -1.15      0.00
    4   34    2     -2.47      0.00
    4   34    1     -1.35      0.00
    4   34    0     -3.78      0.00
    4   34    5     -2.08      0.00
    4   34    6      2.71      0.00
    4   34    7      0.01      0.00
    4   34    8     -1.74      0.00
    4   34    9      2.32      0.00
    4   34   10     -2.05      0.00
    4   34   11     -0.90      0.00
    4   36    4     -1.38      0.00
    4   36    3      1.22      0.00
    4   36    2      1.22      0.00
    4   36    1     -1.56      0.00
    4   36    0     -0.91      0.00
    4   36    5     -1.54      0.00
    4   36    6      0.56      0.00
    4   36    7     -1.46      0.00
    4   36    8      1.41      0.00
    4   36    9     -0.37      0.00
    4   36   10     -2.33      0.00
    4   38    4      0.30      0.00
    4   38    3      0.90      0.00
    4   38    2     -1.15      0.00
    4   38    1     -0.45      0.00
    4   38    0     -0.10      0.00
    4   38    5      0.08      0.00
    4   38    6      3.51      0.00
    4   38    7      0.91      0.00
    4   40    0     -2.92      0.00
    4   40    1     -0.15      0.00
    4   40    2     -3.10      0.00
    4   40    6     -1.07      0.00
    5    1   17      1.55      0.00
    5    1   16      1.43      0.00
    5    1   15     -2.06      0.00
    5    1   14      0.04      0.00
    5    1   13     -0.61      0.00
    5    1   12     -0.72      0.00
    5    1   11     -0.47      0.00
    5    1   10     -3.98      0.00
    5    1    9     -1.43      0.00
    5    1    8      2.00      0.00
    5    1    7      3.53      0.00
    5    1    6      3.01      0.00
    5    1    5      2.65      0.00
    5    1    4      1.21      0.00
    5    1    3     -2.73      0.00
    5    1    2     -9.96      0.00
    5    1    1    -24.99      0.00
    5    1    0    -37.92      0.00
    5    3   17      0.75      0.00
    5    3   16      2.52      0.00
    5    3   15      2.11      0.00
    5    3   14     -2.26      0.00
    5    3   13     -0.91      0.00
    5    3   12     -0.95      0.00
    5    3   11      0.29      0.00
    5    3   10     -1.80      0.00
    5    3    9     -1.30      0.00
    5    3    8      1.14      0.00
    5    3    7      2.50      0.00
    5    3    6      0.39      0.00
    5    3    5      0.76      0.00
    5    3    4      0.69      0.00
    5    3    3      2.40      0.00
    5    3    2      1.14      0.00
    5    3    1     -7.16      0.00
    5    3    0    -17.34      0.00
    5    5   17      3.60      0.00
    5    5   16     -1.03      0.00
    5    5   15      0.83      0.00
    5    5   14     -3.15      0.00
    5    5   13      2.58      0.00
    5    5   12      0.28      0.00
    5    5   11      2.10      0.00
    5    5   10      2.06      0.00
    5    5    9      1.23      0.00
    5    5    8      1.34      0.00
    5    5    7      0.00      0.00
    5    5    6     -2.22      0.00
    5    5    5     -0.44      0.00
    5    5    4     -2.50      0.00
    5    5    3      2.75      0.00
    5    5    2      2.77      0.00
    5    5    1     -0.86      0.00
    5    5    0     -8.57      0.00
    5    7   17     -0.59      0.00
    5    7   16      0.94      0.00
    5    7   15      2.53      0.00
    5    7   14     -5.48      0.00
    5    7   13     -0.03      0.00
    5    7   12     -2.36      0.00
    5    7   11      2.17      0.00
    5    7   10     -0.13      0.00
    5    7    9     -1.53      0.00
    5    7    8     -1.67      0.00
    5    7    7     -1.80      0.00
    5    7    6     -2.76      0.00
    5    7    5     -2.77      0.00
    5    7    4     -4.67      0.00
    5    7    3     -0.95      0.00
    5    7    2      1.18      0.00
    5    7    1     -0.43      0.00
    5    7    0     -3.04      0.00
    5    7   18     -1.40      0.00
    5    9   17      0.73      0.00
    5    9   16      0.52      0.00
    5    9   15     -0.40      0.00
    5    9   14     -1.77      0.00
    5    9   13      1.88      0.00
    5    9   12     -1.32      0.00
    5    9   11      4.25      0.00
    5    9   10      1.57      0.00
    5    9    9      0.69      0.00
    5    9    8     -2.26      0.00
    5    9    7     -3.39      0.00
    5    9    6     -1.27      0.00
    5    9    5     -1.96      0.00
    5    9    4     -1.03      0.00
    5    9    3     -0.69      0.00
    5    9    2      3.42      0.00
    5    9    1      2.24      0.00
    5    9    0      3.44      0.00
    5   11   16      1.45      0.00
    5   11   15      2.12      0.00
    5   11   12      2.71      0.00
    5   11   11      2.83      0.00
    5   11   10      1.28      0.00
    5   11    9     -2.47      0.00
    5   11    8     -2.51      0.00
    5   11    7     -4.19      0.00
    5   11    6     -1.84      0.00
    5   11    5     -2.15      0.00
    5   11    4     -2.67      0.00
    5   11    3     -1.46      0.00
    5   11    2      0.60      0.00
    5   11    1      2.00      0.00
    5   11    0      1.58      0.00
    5   11   13      2.64      0.00
    5   11   14      0.86      0.00
    5   11   17     -0.26      0.00
    5   13   16     -1.98      0.00
    5   13   10      5.53      0.00
    5   13    9     -1.84      0.00
    5   13    8     -1.12      0.00
    5   13    7     -4.35      0.00
    5   13    6     -2.70      0.00
    5   13    5     -0.16      0.00
    5   13    4     -1.85      0.00
    5   13    3      0.42      0.00
    5   13    2     -2.26      0.00
    5   13    1      0.46      0.00
    5   13    0     -1.61      0.00
    5   13   11      2.43      0.00
    5   13   12      3.88      0.00
    5   13   13      2.05      0.00
    5   13   14      0.06      0.00
    5   13   15      1.46      0.00
    5   13   17      1.21      0.00
    5   15    8     -0.86      0.00
    5   15    7     -3.17      0.00
    5   15    6     -0.15      0.00
    5   15    5      1.81      0.00
    5   15    4     -0.97      0.00
    5   15    3      1.64      0.00
    5   15    2      0.21      0.00
    5   15    1      0.47      0.00
    5   15    0     -0.83      0.00
    5   15    9     -2.42      0.00
    5   15   10      0.57      0.00
    5   15   11     -1.68      0.00
    5   15   12     -0.57      0.00
    5   15   13      1.21      0.00
    5   15   14      0.13      0.00
    5   15   15      2.70      0.00
    5   15   16     -3.05      0.00
    5   15   17      1.69      0.00
    5   17    5      0.80      0.00
    5   17    4      0.07      0.00
    5   17    3      1.40      0.00
    5   17    2      1.89      0.00
    5   17    1      0.95      0.00
    5   17    0      1.44      0.00
    5   17    6      0.56      0.00
    5   17    7     -0.13      0.00
    5   17    8     -0.49      0.00
    5   17    9     -2.72      0.00
    5   17   10     -0.41      0.00
    5   17   11      1.64      0.00
    5   17   12      2.47      0.00
    5   17   13      4.32      0.00
    5   17   14      1.21      0.00
    5   17   15      0.99      0.00
    5   17   16     -1.19      0.00
    5   19    6     -1.44      0.00
    5   19    5     -0.88      0.00
    5   19    4     -0.52      0.00
    5   19    3      1.33      0.00
    5   19    2      3.11      0.00
    5   19    1     -0.31      0.00
    5   19    0      1.75      0.00
    5   19    7     -1.12      0.00
    5   19    8      0.70      0.00
    5   19    9      0.02      0.00
    5   19   10     -0.26      0.00
    5   19   11     -0.18      0.00
    5   19   12      0.61      0.00
    5   19   13      0.95      0.00
    5   19   14      3.37      0.00
    5   19   15     -4.89      0.00
    5   19   16     -2.77      0.00
    5   21    6      2.05      0.00
    5   21    5      0.22      0.00
    5   21    4      0.57      0.00
    5   21    3      0.16      0.00
    5   21    2      2.64      0.00
    5   21    1     -2.56      0.00
    5   21    0     -0.87      0.00
    5   21    7      2.69      0.00
    5   21    8      1.61      0.00
    5   21    9      0.72      0.00
    5   21   10      0.52      0.00
    5   21   11      1.08      0.00
    5   21   12      1.08      0.00
    5   21   13     -3.23      0.00
    5   21   14      1.77      0.00
    5   21   15     -5.86      0.00
    5   23    6      2.14      0.00
    5   23    5      0.58      0.00
    5   23    4      1.54      0.00
    5   23    3      0.57      0.00
    5   23    2      1.09      0.00
    5   23    1     -0.58      0.00
    5   23    0      0.12      0.00
    5   23    7      1.39      0.00
    5   23    8      3.50      0.00
    5   23    9      0.51      0.00
    5   23   10     -0.21      0.00
    5   23   11     -0.81      0.00
    5   23   12      2.06      0.00
    5   23   13      0.59      0.00
    5   23   14      3.37      0.00
    5   23   15     -5.09      0.00
    5   25    5      2.06      0.00
    5   25    4     -0.14      0.00
    5   25    3      0.93      0.00
    5   25    2      0.47      0.00
    5   25    1      2.95      0.00
    5   25    0     -2.45      0.00
    5   25    6      3.69      0.00
    5   25    7      0.83      0.00
    5   25    8      3.55      0.00
    5   25    9     -3.30      0.00
    5   25   10      1.20      0.00
    5   25   11     -2.36      0.00
    5   25   12      2.17      0.00
    5   25   13      0.73      0.00
    5   25   14     -1.44      0.00
    5   27    5      0.80      0.00
    5   27    4     -0.67      0.00
    5   27    3     -0.19      0.00
    5   27    2     -4.13      0.00
    5   27    1      1.38      0.00
    5   27    0     -7.32      0.00
    5   27    6      0.33      0.00
    5   27    7      0.34      0.00
    5   27    8      3.25      0.00
    5   27    9     -0.16      0.00
    5   27   10      2.56      0.00
    5   27   11     -1.90      0.00
    5   27   12     -0.10      0.00
    5   27   13      1.44      0.00
    5   27   14     -1.35      0.00
    5   29    5      2.43      0.00
    5   29    4      0.06      0.00
    5   29    3     -1.40      0.00
    5   29    2     -1.29      0.00
    5   29    1      4.24      0.00
    5   29    0      0.03      0.00
    5   29    6      2.06      0.00
    5   29    7      0.91      0.00
    5   29    8      1.90      0.00
    5   29    9      0.08      0.00
    5   29   10      0.70      0.00
    5   29   11      2.00      0.00
    5   29   12      0.59      0.00
    5   29   13      3.66      0.00
    5   31    5      0.32      0.00
    5   31    4      3.66      0.00
    5   31    3      1.60      0.00
    5   31    2      0.95      0.00
    5   31    1      0.71      0.00
    5   31    0      4.32      0.00
    5   31    6      1.18      0.00
    5   31    7     -2.65      0.00
    5   31    8      2.56      0.00
    5   31    9     -3.18      0.00
    5   31   10      3.02      0.00
    5   31   11     -0.17      0.00
    5   31   12     -0.84      0.00
    5   33    5     -0.10      0.00
    5   33    4      0.19      0.00
    5   33    3     -0.90      0.00
    5   33    2     -0.23      0.00
    5   33    1      1.23      0.00
    5   33    0      3.26      0.00
    5   33    6      2.48      0.00
    5   33    7     -2.12      0.00
    5   33    8      5.82      0.00
    5   33    9     -4.02      0.00
    5   33   10      5.05      0.00
    5   35    4      5.52      0.00
    5   35    3      2.80      0.00
    5   35    2     -1.34      0.00
    5   35    1      4.94      0.00
    5   35    0      2.11      0.00
    5   37    4      1.43      0.00
    5   37    3     -2.86      0.00
    5   37    2     -0.89      0.00
    5   37    1      1.45      0.00
    5   37    0     -4.56      0.00
    6    0    0     24.05      0.00
    6    0    1     18.62      0.00
    6    0    2      8.18      0.00
    6    0    3      4.14      0.00
    6    0    4     -2.11      0.00
    6    0    5     -2.34      0.00
    6    0    6     -2.60      0.00
    6    0    7     -2.56      0.00
    6    0    8     -1.78      0.00
    6    0    9      0.07      0.00
    6    0   10      4.02      0.00
    6    0   11      0.84      0.00
    6    0   12      3.10      0.00
    6    0   13     -2.78      0.00
    6    0   14     -6.33      0.00
    6    0   15      3.86      0.00
    6    2   15     -1.85      0.00
    6    2   14     -1.58      0.00
    6    2   13      0.77      0.00
    6    2   12      1.84      0.00
    6    2   11     -2.24      0.00
    6    2   10      1.64      0.00
    6    2    9     -0.68      0.00
    6    2    8     -0.89      0.00
    6    2    7     -2.59      0.00
    6    2    6     -2.12      0.00
    6    2    5     -1.52      0.00
    6    2    4     -2.37      0.00
    6    2    3      1.23      0.00
    6    2    2      3.33      0.00
    6    2    1     12.06      0.00
    6    2    0     17.31      0.00
    6    4   15      1.86      0.00
    6    4   14     -2.04      0.00
    6    4   13     -0.94      0.00
    6    4   12      1.83      0.00
    6    4   11      0.51      0.00
    6    4   10     -0.86      0.00
    6    4    9     -1.24      0.00
    6    4    8     -1.45      0.00
    6    4    7     -1.09      0.00
    6    4    6     -0.20      0.00
    6    4    5      0.09      0.00
    6    4    4     -0.82      0.00
    6    4    3     -0.73      0.00
    6    4    2     -0.40      0.00
    6    4    1      2.83      0.00
    6    4    0      6.55      0.00
    6    6   15     -0.01      0.00
    6    6   14      0.53      0.00
    6    6   13      2.35      0.00
    6    6   12     -1.90      0.00
    6    6   11     -1.19      0.00
    6    6   10     -2.94      0.00
    6    6    9      1.70      0.00
    6    6    8      0.57      0.00
    6    6    7      2.15      0.00
    6    6    6      1.17      0.00
    6    6    5      1.10      0.00
    6    6    4      2.04      0.00
    6    6    3     -2.10      0.00
    6    6    2     -0.65      0.00
    6    6    1      0.23      0.00
    6    6    0      2.88      0.00
    6    8   15      1.12      0.00
    6    8   14      1.04      0.00
    6    8   13      1.31      0.00
    6    8   12      0.06      0.00
    6    8   11     -2.25      0.00
    6    8   10     -2.26      0.00
    6    8    9      1.33      0.00
    6    8    8      2.20      0.00
    6    8    7      2.38      0.00
    6    8    6      2.55      0.00
    6    8    5      1.15      0.00
    6    8    4      2.73      0.00
    6    8    3     -0.39      0.00
    6    8    2     -0.31      0.00
    6    8    1     -2.35      0.00
    6    8    0     -1.60      0.00
    6   10   15     -1.53      0.00
    6   10   14      1.12      0.00
    6   10   13     -1.41      0.00
    6   10   12     -0.92      0.00
    6   10   11     -5.41      0.00
    6   10   10     -2.17      0.00
    6   10    9      0.08      0.00
    6   10    8      2.63      0.00
    6   10    7      2.38      0.00
    6   10    6      2.30      0.00
    6   10    5      0.75      0.00
    6   10    4      1.53      0.00
    6   10    3      0.71      0.00
    6   10    2     -1.23      0.00
    6   10    1     -2.68      0.00
    6   10    0     -3.24      0.00
    6   12   15     -3.90      0.00
    6   12   14      0.05      0.00
    6   12   13     -3.93      0.00
    6   12   12     -3.67      0.00
    6   12   11     -3.25      0.00
    6   12   10     -1.85      0.00
    6   12    9      1.77      0.00
    6   12    8      2.81      0.00
    6   12    7      2.19      0.00
    6   12    6      2.36      0.00
    6   12    5      2.09      0.00
    6   12    4      0.78      0.00
    6   12    3      2.05      0.00
    6   12    2     -0.09      0.00
    6   12    1      0.47      0.00
    6   12    0     -0.16      0.00
    6   14   14      0.77      0.00
    6   14   10     -3.15      0.00
    6   14    9     -0.59      0.00
    6   14    8      2.11      0.00
    6   14    7      3.31      0.00
    6   14    6      1.91      0.00
    6   14    5      0.61      0.00
    6   14    4     -1.16      0.00
    6   14    3      0.03      0.00
    6   14    2     -0.25      0.00
    6   14    1      0.52      0.00
    6   14    0     -0.06      0.00
    6   14   11     -2.76      0.00
    6   14   12     -1.34      0.00
    6   14   13      2.07      0.00
    6   16    8      0.18      0.00
    6   16    7      0.79      0.00
    6   16    6     -2.27      0.00
    6   16    5     -0.95      0.00
    6   16    4     -0.87      0.00
    6   16    3     -2.06      0.00
    6   16    2     -1.04      0.00
    6   16    1     -1.32      0.00
    6   16    0      0.22      0.00
    6   16    9     -0.32      0.00
    6   16   10      0.40      0.00
    6   16   11     -0.15      0.00
    6   16   12     -2.25      0.00
    6   16   13     -2.21      0.00
    6   16   14     -3.11      0.00
    6   18    5     -0.31      0.00
    6   18    4     -1.48      0.00
    6   18    3     -2.78      0.00
    6   18    2     -1.13      0.00
    6   18    1     -0.83      0.00
    6   18    0      2.00      0.00
    6   18    6     -0.33      0.00
    6   18    7      1.84      0.00
    6   18    8     -1.05      0.00
    6   18    9      2.74      0.00
    6   18   10      0.45      0.00
    6   18   11     -2.18      0.00
    6   18   12      0.54      0.00
    6   18   13     -0.30      0.00
    6   20    5      1.13      0.00
    6   20    4      1.03      0.00
    6   20    3     -2.44      0.00
    6   20    2     -1.95      0.00
    6   20    1      0.42      0.00
    6   20    0      0.37      0.00
    6   20    6     -0.14      0.00
    6   20    7      1.84      0.00
    6   20    8     -0.19      0.00
    6   20    9     -0.80      0.00
    6   20   10      0.23      0.00
    6   20   11     -2.21      0.00
    6   20   12      1.48      0.00
    6   22    5     -1.74      0.00
    6   22    4     -0.90      0.00
    6   22    3     -1.04      0.00
    6   22    2     -0.61      0.00
    6   22    1      1.22      0.00
    6   22    0      0.69      0.00
    6   22    6     -2.10      0.00
    6   22    7     -3.99      0.00
    6   22    8      0.41      0.00
    6   22    9     -2.16      0.00
    6   22   10      1.73      0.00
    6   22   11     -3.24      0.00
    6   22   12      2.09      0.00
    6   24    5     -1.44      0.00
    6   24    4     -0.07      0.00
    6   24    3     -1.54      0.00
    6   24    2     -0.78      0.00
    6   24    1      0.38      0.00
    6   24    0     -0.98      0.00
    6   24    6     -3.14      0.00
    6   24    7     -3.26      0.00
    6   24    8      0.97      0.00
    6   24    9     -1.68      0.00
    6   24   10      2.45      0.00
    6   24   11     -0.47      0.00
    6   26    5      0.79      0.00
    6   26    4      0.27      0.00
    6   26    3      1.13      0.00
    6   26    2     -0.98      0.00
    6   26    1      0.06      0.00
    6   26    0      0.67      0.00
    6   26    6     -1.26      0.00
    6   26    7     -1.87      0.00
    6   26    8     -1.18      0.00
    6   26    9      0.11      0.00
    6   26   10     -0.99      0.00
    6   28    5     -0.71      0.00
    6   28    4      0.76      0.00
    6   28    3      3.07      0.00
    6   28    2      1.25      0.00
    6   28    1      0.23      0.00
    6   28    0      0.88      0.00
    6   28    6     -1.43      0.00
    6   28    7     -0.30      0.00
    6   28    8     -1.78      0.00
    6   30    5     -3.04      0.00
    6   30    4     -3.92      0.00
    6   30    3     -3.94      0.00
    6   30    2     -1.56      0.00
    6   30    1     -1.36      0.00
    6   30    0     -0.55      0.00
    6   30    6     -0.34      0.00
    6   32    5      0.07      0.00
    6   32    4      1.01      0.00
    6   32    3      0.16      0.00
    6   32    2     -0.66      0.00
    6   32    1     -2.54      0.00
    6   32    0     -4.75      0.00
    6   34    4     -3.01      0.00
    6   34    3     -2.25      0.00
    6   34    2     -0.82      0.00
    6   34    1     -0.92      0.00
    6   34    0     -2.98      0.00
    6   36    4     -4.24      0.00
    7    1   14      9.20      0.00
    7    1   13     -0.99      0.00
    7    1   12      0.82      0.00
    7    1   11     -1.57      0.00
    7    1   10     -2.30      0.00
    7    1    9      1.32      0.00
    7    1    8      0.66      0.00
    7    1    7      0.51      0.00
    7    1    6      1.97      0.00
    7    1    5      0.86      0.00
    7    1    4      1.33      0.00
    7    1    3     -2.48      0.00
    7    1    2     -4.07      0.00
    7    1    1    -11.36      0.00
    7    1    0    -15.12      0.00
    7    3   14      3.32      0.00
    7    3   13     -1.62      0.00
    7    3   12     -1.22      0.00
    7    3   11     -0.30      0.00
    7    3   10     -0.22      0.00
    7    3    9      1.77      0.00
    7    3    8     -0.21      0.00
    7    3    7      1.89      0.00
    7    3    6      0.70      0.00
    7    3    5      1.86      0.00
    7    3    4      1.35      0.00
    7    3    3      0.16      0.00
    7    3    2     -2.00      0.00
    7    3    1     -6.02      0.00
    7    3    0     -8.47      0.00
    7    5   14      2.67      0.00
    7    5   13      0.46      0.00
    7    5   12      0.27      0.00
    7    5   11     -1.31      0.00
    7    5   10      1.51      0.00
    7    5    9      0.75      0.00
    7    5    8      0.28      0.00
    7    5    7     -1.57      0.00
    7    5    6     -2.16      0.00
    7    5    5     -0.77      0.00
    7    5    4     -0.54      0.00
    7    5    3      1.23      0.00
    7    5    2      1.62      0.00
    7    5    1     -4.22      0.00
    7    5    0     -2.71      0.00
    7    7   13     -3.70      0.00
    7    7   12     -0.17      0.00
    7    7   11      2.98      0.00
    7    7   10      2.43      0.00
    7    7    9     -3.59      0.00
    7    7    8     -1.57      0.00
    7    7    7     -2.08      0.00
    7    7    6     -0.42      0.00
    7    7    5     -1.57      0.00
    7    7    4     -1.97      0.00
    7    7    3     -0.77      0.00
    7    7    2      1.36      0.00
    7    7    1     -0.98      0.00
    7    7    0      5.96      0.00
    7    9   13      2.83      0.00
    7    9   12     -0.40      0.00
    7    9   11      4.58      0.00
    7    9   10      1.15      0.00
    7    9    9      0.16      0.00
    7    9    8     -0.12      0.00
    7    9    7     -3.20      0.00
    7    9    6     -2.99      0.00
    7    9    5     -0.38      0.00
    7    9    4     -0.23      0.00
    7    9    3      0.69      0.00
    7    9    2      1.44      0.00
    7    9    1     -0.42      0.00
    7    9    0      1.57      0.00
    7   11   13      0.12      0.00
    7   11   12      0.37      0.00
    7   11   11      5.17      0.00
    7   11   10      1.19      0.00
    7   11    9     -2.65      0.00
    7   11    8     -2.45      0.00
    7   11    7     -0.68      0.00
    7   11    6     -0.44      0.00
    7   11    5     -1.53      0.00
    7   11    4     -1.81      0.00
    7   11    3     -2.64      0.00
    7   11    2     -0.88      0.00
    7   11    1      1.78      0.00
    7   11    0      4.67      0.00
    7   13   13      0.37      0.00
    7   13   12      3.93      0.00
    7   13   11      1.42      0.00
    7   13   10      1.80      0.00
    7   13    9     -1.40      0.00
    7   13    8     -1.97      0.00
    7   13    7     -2.42      0.00
    7   13    6     -2.37      0.00
    7   13    5     -0.77      0.00
    7   13    4      2.39      0.00
    7   13    3     -0.53      0.00
    7   13    2      0.03      0.00
    7   13    1     -1.08      0.00
    7   13    0     -2.15      0.00
    7   15   12      3.63      0.00
    7   15   11      0.91      0.00
    7   15   10      3.00      0.00
    7   15    9      1.18      0.00
    7   15    8     -1.42      0.00
    7   15    7     -1.05      0.00
    7   15    6     -1.27      0.00
    7   15    5      0.49      0.00
    7   15    4      0.38      0.00
    7   15    3      1.59      0.00
    7   15    2     -1.01      0.00
    7   15    1      0.88      0.00
    7   15    0     -0.07      0.00
    7   17   12      1.10      0.00
    7   17   11     -0.60      0.00
    7   17    8     -0.40      0.00
    7   17    7      0.50      0.00
    7   17    6     -1.23      0.00
    7   17    5      3.59      0.00
    7   17    4      2.14      0.00
    7   17    3      2.58      0.00
    7   17    2      2.00      0.00
    7   17    1      0.18      0.00
    7   17    0     -0.57      0.00
    7   17    9      0.05      0.00
    7   17   10      2.07      0.00
    7   19    4      0.83      0.00
    7   19    3     -0.33      0.00
    7   19    2      3.68      0.00
    7   19    1     -4.73      0.00
    7   19    0     -0.21      0.00
    7   19    5     -0.04      0.00
    7   19    6     -2.60      0.00
    7   19    7     -2.74      0.00
    7   19    8     -0.62      0.00
    7   19    9     -1.32      0.00
    7   19   10      0.00      0.00
    7   21    3      1.31      0.00
    7   21    2      3.64      0.00
    7   21    1     -0.74      0.00
    7   21    0      1.71      0.00
    7   21    4      1.27      0.00
    7   21    5     -2.70      0.00
    7   21    6      0.69      0.00
    7   21    7     -0.27      0.00
    7   21    8     -0.21      0.00
    7   21    9      1.33      0.00
    7   23    3     -0.86      0.00
    7   23    2     -2.77      0.00
    7   23    1      0.95      0.00
    7   23    0     -5.58      0.00
    7   23    4      1.47      0.00
    7   23    5      3.85      0.00
    7   23    6      5.75      0.00
    7   23    7      0.42      0.00
    7   23    8     -2.10      0.00
    7   25    2      0.82      0.00
    7   25    1      3.58      0.00
    7   25    0     -0.53      0.00
    7   25    3      3.24      0.00
    7   25    4     -1.15      0.00
    7   25    5     -5.48      0.00
    7   25    6      0.99      0.00
    7   25    7      5.76      0.00
    7   27    2      0.62      0.00
    7   27    1      0.14      0.00
    7   27    0     -2.01      0.00
    7   27    3     -7.51      0.00
    7   27    4     -1.41      0.00
    7   27    5      1.95      0.00
    7   27    6      0.08      0.00
    7   29    2      1.63      0.00
    7   29    1     -2.43      0.00
    7   29    0     -0.25      0.00
    7   29    3      3.49      0.00
    7   29    4      5.13      0.00
    7   31    1      2.89      0.00
    7   31    0      0.07      0.00
    7   31    2      3.36      0.00
    8    0    0     14.48      0.00
    8    0    1      7.49      0.00
    8    0    2      1.40      0.00
    8    0    3      0.24      0.00
    8    0    4      4.46      0.00
    8    0    5      0.43      0.00
    8    0    6     -0.60      0.00
    8    0    7      1.34      0.00
    8    0    8      0.36      0.00
    8    0    9     -1.05      0.00
    8    0   10     -0.03      0.00
    8    0   11     -2.31      0.00
    8    0   12     -3.35      0.00
    8    2   12      3.99      0.00
    8    2   11      4.15      0.00
    8    2   10      3.57      0.00
    8    2    9     -1.07      0.00
    8    2    8     -0.96      0.00
    8    2    7     -0.98      0.00
    8    2    6     -0.95      0.00
    8    2    5     -2.74      0.00
    8    2    4     -1.85      0.00
    8    2    3     -3.21      0.00
    8    2    2      1.43      0.00
    8    2    1      6.52      0.00
    8    2    0      9.40      0.00
    8    4   12     -0.89      0.00
    8    4   11     -2.99      0.00
    8    4   10     -0.65      0.00
    8    4    9     -0.36      0.00
    8    4    8      0.99      0.00
    8    4    7      1.06      0.00
    8    4    6      0.51      0.00
    8    4    5     -0.53      0.00
    8    4    4      1.31      0.00
    8    4    3     -0.34      0.00
    8    4    2     -1.19      0.00
    8    4    1      4.15      0.00
    8    4    0      7.99      0.00
    8    6   12      3.70      0.00
    8    6   11      1.09      0.00
    8    6   10      0.03      0.00
    8    6    9      0.37      0.00
    8    6    8     -1.22      0.00
    8    6    7      1.92      0.00
    8    6    6      1.78      0.00
    8    6    5      3.19      0.00
    8    6    4      0.95      0.00
    8    6    3     -1.29      0.00
    8    6    2      0.19      0.00
    8    6    1     -0.14      0.00
    8    6    0      1.55      0.00
    8    8   12     -2.03      0.00
    8    8   11     -4.40      0.00
    8    8   10     -0.62      0.00
    8    8    9      2.05      0.00
    8    8    8      1.12      0.00
    8    8    7      2.04      0.00
    8    8    6      1.13      0.00
    8    8    5      0.86      0.00
    8    8    4      2.14      0.00
    8    8    3      1.28      0.00
    8    8    2      0.98      0.00
    8    8    1     -1.47      0.00
    8    8    0      2.93      0.00
    8   10   11     -2.18      0.00
    8   10   10      0.10      0.00
    8   10    9      0.16      0.00
    8   10    8      1.75      0.00
    8   10    7     -0.05      0.00
    8   10    6      1.34      0.00
    8   10    5     -0.09      0.00
    8   10    4      0.55      0.00
    8   10    3      1.11      0.00
    8   10    2      2.16      0.00
    8   10    1      0.14      0.00
    8   10    0     -1.72      0.00
    8   12   11     -2.06      0.00
    8   12   10      0.73      0.00
    8   12    9      1.15      0.00
    8   12    8      1.53      0.00
    8   12    7      1.32      0.00
    8   12    6      0.35      0.00
    8   12    5      0.18      0.00
    8   12    4     -0.34      0.00
    8   12    3      1.06      0.00
    8   12    2     -0.25      0.00
    8   12    1      0.98      0.00
    8   12    0      0.21      0.00
    8   14   11     -2.47      0.00
    8   14   10     -0.15      0.00
    8   14    9      1.71      0.00
    8   14    8      1.52      0.00
    8   14    7      2.48      0.00
    8   14    6      0.63      0.00
    8   14    5      0.92      0.00
    8   14    4      0.77      0.00
    8   14    3     -0.55      0.00
    8   14    2      4.81      0.00
    8   14    1     -0.32      0.00
    8   14    0      1.28      0.00
    8   16   10     -2.45      0.00
    8   16    9     -3.83      0.00
    8   16    8      0.69      0.00
    8   16    7      1.39      0.00
    8   16    6      2.60      0.00
    8   16    5     -3.69      0.00
    8   16    4     -0.37      0.00
    8   16    3     -5.15      0.00
    8   16    2      1.65      0.00
    8   16    1     -3.09      0.00
    8   16    0      3.89      0.00
    8   18    9      1.01      0.00
    8   18    7     -0.76      0.00
    8   18    6      4.63      0.00
    8   18    5     -1.10      0.00
    8   18    4     -1.40      0.00
    8   18    2      0.19      0.00
    8   18    1      0.50      0.00
    8   18    0      3.27      0.00
    8   18    3     -0.06      0.00
    8   18    8      2.93      0.00
    8   20    3      1.49      0.00
    8   20    4     -1.67      0.00
    8   20    5      2.71      0.00
    8   20    6      2.35      0.00
    8   20    7      1.44      0.00
    8   22    3      1.15      0.00
    8   22    4     -3.16      0.00
    8   22    5     -1.94      0.00
    8   22    6     -1.40      0.00
    8   24    4      3.35      0.00
    8   24    5      0.26      0.00
    9    1    5      3.38      0.00
    9    1    4     -4.11      0.00
    9    1    3      4.57      0.00
    9    1    2      0.96      0.00
    9    1    1     -5.21      0.00
    9    1    0     -6.95      0.00
    9    3    5      4.53      0.00
    9    3    4      1.07      0.00
    9    3    3      2.58      0.00
    9    3    2      2.06      0.00
    9    3    1     -4.06      0.00
    9    3    0     -2.41      0.00
    9    5    6     -1.49      0.00
    9    5    5     -1.43      0.00
    9    5    4      0.04      0.00
    9    5    3     -1.75      0.00
    9    5    2      4.16      0.00
    9    5    1     -3.73      0.00
    9    5    0     -4.99      0.00
    9    7    6     -0.72      0.00
    9    7    5     -4.18      0.00
    9    7    4      1.83      0.00
    9    7    3     -4.34      0.00
    9    7    2     -0.04      0.00
    9    7    1     -0.26      0.00
    9    7    0     -0.22      0.00
    9    9    6      0.71      0.00
    9    9    5     -1.22      0.00
    9    9    4     -0.56      0.00
    9    9    3     -3.18      0.00
    9    9    2      0.45      0.00
    9    9    1     -1.22      0.00
    9    9    0     -2.57      0.00
    9   11    6      0.77      0.00
    9   11    5      1.99      0.00
    9   11    4      0.48      0.00
    9   11    3     -0.72      0.00
    9   11    2     -1.21      0.00
    9   11    1     -3.51      0.00
    9   11    0      1.54      0.00
    9   13    5     -0.74      0.00
    1    1    0   -181.29      0.00
    0    2    0     87.65      0.00
    0    4    0    101.91      0.00
    0    6    0    -42.75      0.00
    0   42    0     -0.28      0.00
    0    0    1     26.41      0.00
    1    1    1    -72.85      0.00
    0    2    1    -75.87      0.00
    0    4    1     49.95      0.00
    0    0    2     81.77      0.00
    1    1    2    -10.94      0.00
    0    2    2     77.81      0.00
    6    0   16      1.49      0.00
    6    2   16     -5.15      0.00
    0    0    0      0.00      0.00
# SQUEEZE RESULTS (Version = 230318)
# Note: Data are Listed for all Voids in the P1 Unit Cell
# i.e. Centre of Gravity, Solvent Accessible Volume,
# Recovered number of Electrons in the Void and
# Details about the Squeezed Material
loop_
  _platon_squeeze_void_nr
  _platon_squeeze_void_average_x
  _platon_squeeze_void_average_y
  _platon_squeeze_void_average_z
  _platon_squeeze_void_volume
  _platon_squeeze_void_count_electrons
  _platon_squeeze_void_content
   1 -0.494 -0.009  0.185      2182       427 ' '
# Missing Reflections Below sin(th)/lambda = 0.25
loop_
  _platon_missing_refln_index_h
  _platon_missing_refln_index_k
  _platon_missing_refln_index_l
  _platon_missing_refln_theta
    1    1    0     3.038
    0    2    0     1.237
    0    4    0     2.475
    0    6    0     3.714
    0    0    1     1.229
    1    1    1     3.278
    0    2    1     1.744
    0    4    1     2.763
    0    0    2     2.459
    1    1    2     3.910
    0    2    2     2.753
_platon_squeeze_void_probe_radius                  1.20
_platon_squeeze_details
)
TITL 18101511 in Cmmm #65
CELL    6.8484   32.9205   16.5679     90.00     90.00     90.00
SPGR Cmmm
# Solvent Accessible Volume =      2174
# Electrons Found in S.A.V. =       416
# Note: Atoms in Void are Labelled as Cxxx and Qxxx for all Others
C101 0.500 0.039 0.080 !       3.58 eA-3
C102 0.500 0.016 0.005 !       2.87 eA-3
C103 1.000 0.497 0.141 !       2.14 eA-3
C104 0.500 0.068 0.106 !       2.10 eA-3
C105 1.000 0.367 0.512 !       1.93 eA-3
C106 0.087 0.375 0.504 !       1.65 eA-3
C107 1.000 0.502 0.297 !       1.62 eA-3
C108 0.500 0.008 0.218 !       1.62 eA-3
C109 1.000 0.453 0.817 !       1.58 eA-3
C110 0.500 0.155 0.046 !       1.41 eA-3
Q111 0.500 0.203 0.508 !       1.34 eA-3
C112 0.500 0.500 0.500 !       1.32 eA-3
C113 0.500 0.235 0.193 !       1.25 eA-3
C114 0.500 0.031 0.352 !       1.21 eA-3
C115 0.626 0.249 0.197 !       1.19 eA-3
C116 1.000 0.369 0.923 !       1.18 eA-3
C117 0.500 0.109 0.002 !       1.17 eA-3
C118 1.000 0.020 0.454 !       1.16 eA-3
Q119 1.000 0.273 0.468 !       1.16 eA-3
C120 0.104 0.016 0.505 !       1.14 eA-3
C121 0.500 0.230 0.234 !       1.13 eA-3
C122 0.500 0.178 0.083 !       1.10 eA-3
C123 0.186 0.094 0.504 !       1.09 eA-3
C124 0.404 0.500 0.453 !       1.05 eA-3
C125 0.710 0.258 0.182 !       1.03 eA-3
C126 0.933 0.409 0.450 !       1.02 eA-3
C127 0.026 0.428 0.424 !       0.96 eA-3
Q128 0.907 0.500 0.000 !       0.96 eA-3
Q129 0.407 0.219 0.501 !       0.96 eA-3
C130 0.500 0.183 0.032 !       0.94 eA-3
C131 0.500 0.103 0.049 !       0.92 eA-3
C132 0.500 0.069 0.375 !       0.89 eA-3
C133 0.500 0.168 0.109 !       0.84 eA-3
C134 0.411 0.094 0.503 !       0.82 eA-3
Q135 0.500 0.329 0.338 !       0.82 eA-3
Q136 0.862 0.016 0.000 !       0.73 eA-3
C137 1.000 0.270 0.851 !       0.72 eA-3
C138 0.500 0.212 0.205 !       0.71 eA-3
C139 0.033 0.086 0.499 !       0.71 eA-3
C140 0.500 0.042 0.268 !       0.71 eA-3
C141 0.500 0.267 0.129 !       0.68 eA-3
Q142 0.560 0.499 0.266 !       0.68 eA-3
C143 0.149 0.446 0.407 !       0.64 eA-3
C144 0.591 0.279 0.120 !       0.63 eA-3
Q145 1.000 0.188 0.619 !       0.61 eA-3
Q146 0.178 0.227 0.499 !       0.61 eA-3
C147 0.821 0.018 0.449 !       0.61 eA-3
Q148 0.895 0.496 0.172 !       0.59 eA-3
Q149 0.500 0.239 0.281 !       0.58 eA-3
C150 0.500 0.211 0.156 !       0.58 eA-3
Q151 0.567 0.503 0.047 !       0.58 eA-3
C152 0.766 0.422 0.496 !       0.57 eA-3
C153 0.344 0.446 0.486 !       0.54 eA-3
Q154 0.385 0.030 0.252 !       0.54 eA-3
C155 0.871 0.244 0.757 !       0.53 eA-3
C156 0.787 0.501 0.563 !       0.52 eA-3
Q157 0.718 0.278 0.425 !       0.52 eA-3
C158 0.627 0.217 0.125 !       0.51 eA-3
Q159 0.874 0.503 0.047 !       0.51 eA-3
Q160 1.000 0.158 0.095 !       0.50 eA-3
C161 1.000 0.281 0.005 !       0.50 eA-3
)
;
_shelx_fab_checksum              86628
_olex2_submission_special_instructions 'No special instructions were received'
_oxdiff_exptl_absorpt_empirical_details 
;
Empirical correction (ABSPACK) includes:
- Absorption correction using spherical harmonics
- Frame scaling
;
_oxdiff_exptl_absorpt_empirical_full_max 2.119
_oxdiff_exptl_absorpt_empirical_full_min 0.587
